142
 SCF done       -244.373597747565          0.000996932733
C          14.69929713639309   -2.40317995859070  -13.81365761633667
C          14.71084118307624   -3.41252070400057  -14.73549914402794
F          15.39399291082183   -3.25136742032471  -15.88605289787433
C          14.03581690910680   -4.62286705212305  -14.53320223124623
C          13.33833854521400   -4.80324817834181  -13.37074550730978
C          13.29339443195194   -3.79641372455111  -12.38571773760942
C          13.98598537437262   -2.57196538403077  -12.61127200702329
C          13.95109366706601   -1.54436170681999  -11.63859320395638
C          13.25518194175411   -1.74224755408860  -10.47821592607398
C          12.57384527080560   -2.97305628340115  -10.25374808321236
C          12.58047943686290   -3.97599410396870  -11.17770499612349
C          11.93995573250147   -2.93774402996971   -8.91833934873308
O          11.24188919572955   -3.78749895069868   -8.40810803759180
C          12.38534851386329   -1.66117411899432   -8.31090664777109
C          13.02855178673926   -0.87532522143190   -9.32440437253333
C          13.20237817551743    0.48825056179226   -9.30895993864337
C          13.86137713871815    1.21224536613576  -10.31486517550075
N          14.43772898536879    1.85682792548761  -11.07331720922771
C          12.68830143844556    1.32077694550412   -8.29842694333136
N          12.25160338429299    2.03522673346352   -7.51209001203152
C          12.22007059873033   -1.47520583655272   -6.95985513980886
C          12.90335849572319   -0.62657122394969   -6.08611693050406
S          12.29339038427666   -0.41647236689396   -4.46143872255529
C          13.58636498505746    0.61920197087071   -3.97644003329276
C          14.49094496842913    0.77992959665481   -5.04523967570292
C          14.11612461076267    0.07556835469635   -6.22211296763055
N          14.91964972094250    0.07004284894586   -7.30232740357376
C          16.02098089195984    0.77935664189318   -7.23168908125228
C          16.90287251227495    0.79082916174834   -8.44628737414258
N          17.00041787104153    2.14628983089993   -8.97921664043487
C          16.37592263235047    1.50860285219593   -6.05874686809624
C          17.66568864533084    2.27207253347347   -5.98443753658209
N          18.77609361469603    1.32123338240118   -5.94107605593746
N          15.62674976950855    1.49070975506940   -4.98311738448610
C          13.73107880456890    1.18294379631101   -2.69637225765852
C          12.88337785461536    0.94896971236976   -1.66008877916088
C          13.01817676018755    1.43749263881355   -0.32262035473754
C          13.98582659276837    2.35336896497465    0.04480714280035
C          14.12296474575096    2.73641585677648    1.39058357659776
C          15.02576602443072    3.59117329575525    2.01261040591554
C          16.05578755049782    4.48640971971666    1.41500037182218
C          17.36815571850469    3.73878305047345    1.09137867112877
N          17.14810171535449    2.69474897547737    0.10789248222556
C          15.55918918712775    5.23634066624600    0.16260468172978
N          16.20865896319026    6.53762609027632    0.10113818792157
C          14.74401984229441    3.52836192846859    3.42907610595716
C          15.36983148237426    4.08904699367642    4.47895268544218
C          14.87984989121941    3.90621639996223    5.87160671314715
C          13.68250423037992    3.00808272079584    5.99731411740586
C          13.09379723486722    2.42444846470207    4.93925189535610
C          13.59063801423125    2.64083661878754    3.63046472050073
C          13.23215086751416    2.15544564507473    2.39247987602167
C          12.21934152524137    1.25463842333961    1.98122360903117
C          12.11785655080610    0.91910323345580    0.67346980558870
C          14.54035100139347    5.22355014988412    6.52004083536736
C          14.48937142295315    6.39146731565604    5.86934257416561
C          14.15400824745939    7.64675398728391    6.44947367841767
S          13.54417567339584    7.87729179973384    8.04779894213282
C          13.44338100528445    9.60761959339083    7.88938930506986
C          13.86146452689736    9.98693464566927    6.60221535815905
C          14.27540071249897    8.88128557753073    5.80400260948434
N          14.77597327261206    9.06383388153757    4.56792736335809
C          14.79157595284378   10.28607039828984    4.10114693792418
C          15.41810583837041   10.48965435267358    2.75157330175352
N          15.80610805807996    9.23353393390265    2.13984790254605
C          14.26738488053750   11.38565042547935    4.85937947143233
C          14.17304478466351   12.78948145894941    4.32022290015991
N          15.37784356142133   13.53609712481081    4.66286261929168
N          13.84790269299944   11.22797466651532    6.08703326789758
C          12.98855889608295   10.41585316428874    8.94451211645900
C          13.01182863243621   11.77996837600642    8.87956274779366
C          12.58821882428400   12.61418199395897    9.92589911394017
C          12.60448580789208   13.98413422695949    9.91296795190228
C          12.56873180717534   14.74886613660601   11.18287006478342
O          12.23658971762154   14.33983112077087   12.27344771649918
C          13.09273588618016   16.08793047725185   10.83988948193698
C          13.36258820312832   17.14103292048640   11.66403956287105
C          13.90180672017317   18.32661167963617   11.11514297982424
C          14.15318808112970   18.39543504715726    9.71402768148924
C          14.70045795675480   19.57637331063651    9.17618817719796
C          14.97587626563569   20.62756062078557   10.00565187005540
C          14.73351018137575   20.58042146892874   11.38485743832604
C          14.20259400160952   19.44144121416852   11.92365209117772
F          15.50032051908804   21.75629363844382    9.49234227166541
C          13.85271837611562   17.29161391057285    8.88139070294225
C          13.32812960743580   16.15611522981371    9.43566647539092
C          12.88635822499915   14.89974343006768    8.83440223986780
C          12.60932632756639   14.70564159132203    7.50366801623086
C          11.81409260379810   13.64544341942890    7.01772245718651
N          11.09771324054527   12.86575971593285    6.57368942025741
C          12.99090942027506   15.59234374273274    6.48038464019369
N          13.32288843363958   16.24528463649918    5.59482617622687
H          15.22885925963359   -1.48296706536910  -14.00540736548447
H          14.08049946378958   -5.38390682376905  -15.29602798153595
H          12.80988033701881   -5.72758820007893  -13.19142760488903
H          14.48555541651849   -0.62789151856719  -11.83393126268838
H          12.05138631368968   -4.89863876421665  -10.99128989039190
H          11.50651275639078   -2.15178795981232   -6.49788346267995
H          16.50126861696373    0.05794469032771   -9.16401308381127
H          17.90654436934901    0.48273208908155   -8.13768774816001
H          16.10163718235045    2.44654164832881   -9.34519193155950
H          17.65470607876343    2.15938688168153   -9.75389818509216
H          17.61938677613746    2.93386092128279   -5.10657711763962
H          17.76965755909377    2.86776243705684   -6.89449016210038
H          18.73639630590606    0.78350349622732   -5.08073735820261
H          19.65752608323171    1.82220742386829   -5.95329117617438
H          14.60593080492630    1.80758536840984   -2.58475359862978
H          12.03930961844556    0.29394837454455   -1.84547870936460
H          14.66255875069262    2.76168688231233   -0.68611515868088
H          16.31207065188454    5.24790647700496    2.15929552602268
H          17.79844816988091    3.36185537366858    2.03544864017377
H          18.05902828754826    4.46799643348433    0.66232906243903
H          16.62534002684839    1.92795653415708    0.51794484537019
H          18.03236140338018    2.32906004779133   -0.22507669978324
H          14.46013209218237    5.30256566047875    0.18895903744386
H          15.85148029347033    4.67201817746550   -0.72412346227520
H          15.80967226763563    7.16324889837841    0.79598519299102
H          16.05388527231566    6.96012224613536   -0.80759906488101
H          16.25459140713314    4.69979315211112    4.35766842325706
H          15.69930539676882    3.46404442533324    6.46370058834939
H          13.30962003065769    2.85853760215192    6.99895226574168
H          12.23829010877305    1.77871186302795    5.07457236224628
H          11.54425779786002    0.84288232605565    2.71695080412503
H          11.35352087517180    0.22890214059762    0.34677392659249
H          14.29729028258246    5.17849521637594    7.57346415149241
H          14.72615306402925    6.45643385240443    4.81594430032194
H          16.26426469172072   11.18692627874633    2.88946001138483
H          14.69680810954565   10.98300685768309    2.08820258057660
H          16.14302478097083    8.60228621006915    2.85905614520938
H          16.54184008520154    9.37859052111408    1.45812068481316
H          13.33222467967111   13.27035650773171    4.82381009571210
H          13.95991482853815   12.76278608046288    3.24038657207940
H          16.14787191876518   13.28531740801806    4.05231061146866
H          15.20720255207628   14.52988346749751    4.55999987772223
H          12.60752342485027    9.91685003091550    9.82658744776886
H          13.42031293737590   12.22113160218980    7.98328198943337
H          12.31454504579980   12.15549407856446   10.87013533892361
H          13.16720679274271   17.07224531081290   12.72373218831842
H          14.89778586845961   19.64969562221464    8.11807787591033
H          14.97071297858112   21.44106327504485   11.98988095174225
H          14.00715692065302   19.38059416548412   12.98373239674587
H          14.05554748956577   17.36844804155634    7.82467384670267
