128
 SCF done       -250.407319769299          0.000637671671
C           4.04748803436246   -4.16322026977529   -4.11080947578645
C           3.56354793211584   -5.36550870146871   -4.54572098824729
F           2.38791277983612   -5.81771588342333   -4.06944059059260
C           4.24730625491948   -6.15857946764128   -5.47658590899310
C           5.44359343617821   -5.71615280303433   -5.96940748615799
C           5.99039158080895   -4.48496698252196   -5.55410954763877
C           5.27757379413252   -3.69182892723188   -4.60858168241351
C           5.80198116117323   -2.44848112874014   -4.18237907315539
C           7.00183638818432   -2.02307049647397   -4.68114044638218
C           7.71891813893149   -2.82761820352499   -5.61273776616099
C           7.23156569403310   -4.02432762466770   -6.05011466570668
C           8.99418007032824   -2.16151572605875   -5.94897668835929
O           9.83215863910796   -2.51353426950381   -6.74639914978682
C           9.06522195096072   -0.98612836367105   -5.03972259711186
C           7.76302640907024   -0.79556417976658   -4.45671721038385
C           7.22395348171366    0.39779358453264   -4.04102314109930
C           7.89802577746004    1.62698670734107   -4.17320347454700
N           8.40623948889037    2.64699018299324   -4.31784502488488
C           5.91304231320379    0.53642986774782   -3.54845657759041
N           4.86267812563392    0.69514303353516   -3.11189277845118
C          10.29300972335268   -0.42110527566198   -4.81778844671939
C          10.78389092598526    0.32573335636618   -3.74194001959137
S           9.86802908060346    0.66403768481608   -2.30477768187693
C          11.13761978936936    1.55571753945214   -1.57128227099761
C          12.25450980592428    1.63000167075189   -2.42166358660978
C          12.07945984034156    0.87234615900849   -3.61880009933551
C          13.15213369434735    0.79584145179065   -4.53593276923363
C          13.22158005654675   -0.16007080086295   -5.66223401128380
O          13.33031605369491    0.08769681576624   -6.82781241629957
C          13.44313393752576   -1.63056724200710   -5.15926265409606
F          12.72560302710849   -1.95091632481088   -4.07099884245100
F          13.20472858704654   -2.54663951298052   -6.08715443596655
F          14.73718550225827   -1.74623770021632   -4.79799331502782
C          14.27497192233245    1.57049015447478   -4.33006281469342
C          14.39081704862302    2.39251501768154   -3.20112312951374
C          13.41313428509880    2.41004435387450   -2.24387259117953
C          10.97243980348749    2.08404406249473   -0.24590854117039
C          12.03142035070272    2.13117016808319    0.63493897831752
C          11.83470234791203    2.61658035830900    1.94064063258829
C          12.71944069091247    2.74020984792697    3.00424191615103
C          14.17479061997390    2.42662110159312    2.97463549977702
C          15.01570901422650    3.70355173252591    3.18157581425025
N          16.30488296119161    3.53275318420378    2.54319150668946
C          14.55041695926582    1.32515670220354    3.98122593719552
N          15.90736381872436    0.86013185882334    3.73768192121493
C          11.96116706266763    3.28236400643253    4.10933099389607
C          12.30841542876000    3.57232087569349    5.37652088034867
C          11.30891025861595    4.09242866435598    6.36018539148409
C           9.95669197253082    4.37200139312845    5.79167923770017
C           9.62113711205496    4.05742216841737    4.52804582336310
C          10.57877630927107    3.49203939994297    3.65233575710929
C          10.51071643027257    3.07513262679008    2.33940714319759
C           9.44212418139016    3.00327471576196    1.41457275390758
C           9.66687736117190    2.51046540846477    0.17203784839211
C          11.92077318752288    5.24477333295793    7.10986838096190
C          11.55254589876514    6.52295806810240    6.98593726384302
C          12.15045386930760    7.58461985630844    7.75400686556411
S          11.15578968591867    8.81640120239416    8.42516756379301
C          12.43422135675960    9.45284813100547    9.41449950140152
C          13.62061468925851    8.72973894244087    9.19235929850748
C          13.46789258757635    7.71662717749460    8.19665940878065
C          14.61129122910816    6.98349647115370    7.77799221677902
C          14.64847623375376    6.16449088958645    6.56461298310761
O          15.12529162732703    5.06313718019129    6.45962812933368
C          14.20409403976546    6.89157739513439    5.25215383461343
F          13.75319096527477    8.13388397217648    5.43533410330149
F          15.26947512152084    6.97859929256231    4.44279053772682
F          13.25729164833363    6.22340700788474    4.58132554610790
C          15.79614138495394    7.14128848067071    8.46778062146826
C          15.91454297591022    8.09209649220148    9.49134797936305
C          14.86448940983596    8.90703675570649    9.82349836714292
C          12.23376897892016   10.43641965212073   10.39993442588821
C          11.21214546861564   11.32665945539182   10.56240268359288
C          10.95970540201320   11.89637672017029   11.91385919247824
O          11.70099188969853   11.84296525809517   12.86937572311336
C           9.60188389731940   12.46835137932518   11.84231208898969
C           8.84225191985748   13.00870511448074   12.83938017053386
C           7.54225796726036   13.47481050752715   12.54011848029108
C           7.05084573597937   13.36777477357938   11.20610425272310
C           5.75156512636844   13.82760342439693   10.91745381479826
C           4.99273709886593   14.36768074330994   11.91850411028364
C           5.45828749551536   14.48357024935058   13.23538563490110
C           6.71713374924212   14.04121283499019   13.53326123713268
F           3.75158590393485   14.80691046113808   11.64470498903076
C           7.86356412272814   12.81183156082787   10.19030789558262
C           9.12110501774735   12.37423779290575   10.50360609248759
C          10.17976004156266   11.80619529124304    9.67396518712875
C          10.29692724054707   11.96341670172584    8.31616095322521
C          11.49075542574264   11.68012135831903    7.62299103534666
N          12.47512723416283   11.50071551449993    7.06019744315586
C           9.29143561989883   12.51828750833402    7.50096524320768
N           8.49252895116005   12.94719353707336    6.79719402633978
H           3.49156972040845   -3.57688041935914   -3.39590638365325
H           3.81642846682679   -7.09848461941303   -5.78322195170623
H           5.98944640621951   -6.30963993132573   -6.68735868417103
H           5.24653253349242   -1.86912062615058   -3.46162841418815
H           7.78561061922816   -4.61495900046128   -6.76408891564868
H          11.02879306378295   -0.69025121755209   -5.57158574321005
H          15.08360234208075    1.52401856765175   -5.04334812065732
H          15.27317959938375    3.00208104868329   -3.08761635163362
H          13.50594497139492    3.04075388186440   -1.37446377219641
H          12.99525920512794    1.74040438413068    0.34732254198114
H          14.42734089447017    2.05640500472871    1.97585380738328
H          15.08377198809280    3.91881809309267    4.25739895119436
H          14.50853292622160    4.54595742788212    2.69960299748119
H          16.78210544410564    2.74598126406899    2.97453252203799
H          16.87074913242783    4.36554558987348    2.66016760666340
H          13.79782538767890    0.51960914821519    3.91160494098577
H          14.52045816241565    1.72168744366732    4.99860652215833
H          15.96782246631228    0.42112265256195    2.82419606198662
H          16.17442026962929    0.17029797037888    4.43166738606301
H          13.31496030603680    3.44026469151130    5.74459911157289
H          11.18342868735936    3.28461795700072    7.10462295463236
H           9.23824332877617    4.80239149229749    6.47281704879513
H           8.62248530935473    4.24242360142242    4.16063053051291
H           8.45758471519010    3.33457379723920    1.70803741066404
H           8.86539077721712    2.44995921938898   -0.54960631510507
H          12.71619105534406    4.97406163957280    7.79185753498614
H          10.71694372659324    6.79206300569609    6.35470042700599
H          16.65890869380046    6.56835644241236    8.16402898042684
H          16.86476711043556    8.20341279770773    9.98950511381502
H          14.98468004690454    9.67979510409794   10.56580418859854
H          12.95064250956889   10.42919848216740   11.21613864483368
H           9.22770356972032   13.08081648394071   13.84535735306795
H           5.36209043042166   13.75799151214588    9.91381192105492
H           4.81454321575980   14.91843195356026   13.98337375762508
H           7.09780660381741   14.12022018678156   14.54043585991237
H           7.46727870162515   12.73711851101173    9.18993706057323
