124
 SCF done       -249.903849839309          0.000914972475
C           1.35511198390226    4.82946735328261    2.59222785327918
C           0.65631664277930    5.66991692781518    3.41341003674108
F          -0.39714585031951    6.34725069835125    2.92594103531334
C           0.99571125644301    5.85849981396905    4.76087911359851
C           2.06430308812821    5.17920945728104    5.27587600896600
C           2.82148250511158    4.30031547160761    4.47372124336584
C           2.45876464248049    4.12018227645735    3.10601212608836
C           3.19871859772662    3.24183792829585    2.28274322328022
C           4.26666005475415    2.56440570937783    2.81052471040858
C           4.63455419555293    2.76196867150454    4.17385433632061
C           3.93476808988571    3.60307713490754    4.99157502783691
C           5.84454943447988    1.98146715730531    4.47748025557497
O           6.42290586460787    1.86487615029867    5.52771560514649
C           6.27137109583845    1.41187432476046    3.15667344330173
C           5.18457570586589    1.60894080812669    2.20676312205519
C           4.98493973086931    0.93691362288980    1.03422273324837
C           5.80561142916165   -0.09898879777069    0.54449990772203
N           6.41243173339626   -0.96358886695600    0.09421653323650
C           3.88490795364845    1.16376992092485    0.17649746766322
N           3.02375357313979    1.31305762312230   -0.56636934269445
C           7.54758283860271    1.02916824918899    2.98776236384817
C           8.23225759844230    0.73733874399962    1.74078846929177
C           8.26342652284098    1.61552777976809    0.64466031367193
C           7.65425390718317    2.95356933589261    0.64318794200688
O           7.09828394709254    3.52769285932305    1.53812120950750
S           7.85238236847802    3.68408540418881   -0.97880767425299
C           8.73699949754881    2.25799655928130   -1.63333772802334
O           9.08183949366994    2.20069378322557   -2.77567820923454
C           8.89943529894982    1.26776720784063   -0.55499996905409
C           9.56643316452219    0.04765493133728   -0.71833641098585
C           9.58418895865980   -0.79835772453956    0.39650925747140
C           8.92775372372270   -0.46555756659418    1.58124457516568
C           8.96167878420706   -1.50900512121655    2.61767431083286
O           8.41318869745789   -1.49985108222440    3.68059372796454
S           9.98015892403387   -2.86206060909854    2.03647476802674
C          10.30082112151489   -2.08235369379272    0.44364378382377
O          11.01804669705966   -2.56692794391265   -0.38054977959291
C          10.18602124310574   -0.33570448392701   -1.99175007369147
C          11.19134506517325    0.43541200688390   -2.52341480856354
C          11.72584026678761    0.09538398967244   -3.77695168704099
C          12.67320462782762    0.74170333441899   -4.57359415452053
C          13.45170448758340    1.99188407852840   -4.36581315288024
C          12.63323457602509    3.19679640538352   -4.90393375253464
N          12.59637612596611    3.15972253846108   -6.34932468860831
C          13.96376536028842    2.23722609658563   -2.93299314582916
N          12.96776937623806    2.78398288081592   -2.02246196485987
C          12.71285278273256    0.01971193588047   -5.82304344587655
C          13.33954837957958    0.31012584896209   -6.97934998274580
C          13.11187454010528   -0.51841048664524   -8.19544651237860
C          12.39369640607023   -1.80027701883367   -7.95371701142225
C          11.75153638804107   -2.05831776708621   -6.79176609037580
C          11.83017931752419   -1.14009074143977   -5.72282628344046
C          11.21552215481119   -1.07180385287519   -4.47056712125439
C          10.21652286133126   -1.85997541635712   -3.87599552687717
C           9.70841713763487   -1.49153117844965   -2.66169309793353
C          14.40488036089394   -0.63283223139563   -8.96050924933549
C          14.87724319770125    0.40649454243622   -9.63648265436638
C          16.18349937897366    0.51002825747173  -10.27001211022633
C          16.65761431719184   -0.35393932464953  -11.26234671319975
C          15.90704286583216   -1.49562109847964  -11.80885988258083
O          14.84321934990876   -1.92613671854357  -11.47218968174606
S          16.86161107082362   -2.22892820841842  -13.14785219858229
C          18.19419601480775   -1.04459981555379  -12.99462612540764
O          19.15079007452228   -1.02317958124418  -13.71402365088192
C          17.88898011047339   -0.13186474888255  -11.88560671900333
C          18.72101467352964    0.94717100726549  -11.56472194877646
C          18.26366160688835    1.79683327399323  -10.54653686841496
C          17.02761533312907    1.57473158840243   -9.92093356690094
C          16.70362933895000    2.52951350123038   -8.86053362191864
O          15.74256129810310    2.54799781673805   -8.13628683369592
S          18.02094938026369    3.73667746160319   -8.74102882517597
C          18.99199809414506    2.96385654005281  -10.04234013119563
O          20.05228291106051    3.40539915655961  -10.38937749375010
C          19.98862900074522    1.12103858487080  -12.25209204565721
C          20.45168129054790    2.20312674859669  -12.89910394504774
C          21.90358045716820    2.25950746750387  -13.27252581722761
O          22.67181275224900    1.33122429829436  -13.29171084578667
C          22.17497071326910    3.68265450231333  -13.52673734914102
C          23.37050487695024    4.28941924281982  -13.78846183224649
C          23.40887779878247    5.68930520966788  -13.96781023033847
C          22.20142927427140    6.44032413756245  -13.85655942898344
C          22.24761692043624    7.83812609751678  -14.02769092704782
C          23.44370329908981    8.44164372959322  -14.29977352310149
C          24.64076828147098    7.72044577423949  -14.41538759941254
C          24.61496958451028    6.36380798892243  -14.24995017609057
F          23.48992762000562    9.77464375174704  -14.46580552636935
C          20.97852279538553    5.78688509855391  -13.58389622413551
C          20.96149055198623    4.42481556755021  -13.43192815993437
C          19.86065161879405    3.50469723649424  -13.17963570665283
C          18.53291928680530    3.79589998994463  -13.31633578364635
C          17.48137858062920    2.86050916959952  -13.24440723731368
N          16.56944069639204    2.16313104519769  -13.22124963028553
C          18.03326803129305    5.08635169502633  -13.60306885217431
N          17.55948085001498    6.10917223407914  -13.81550482611164
H           1.06423142836634    4.70712582465643    1.56062028441860
H           0.40737321305445    6.53533315296034    5.35994016406012
H           2.34503320262055    5.30898951619817    6.31013474074897
H           2.91196481161298    3.13772672055515    1.24835975585646
H           4.23087450848401    3.73761871135523    6.02112790295860
H           8.14069641536215    0.94300067970487    3.89320852605057
H          11.57003161850756    1.30795716404889   -2.01158107561404
H          14.34459652549049    1.92205504334475   -4.99741440600716
H          13.09777871321448    4.11837016444420   -4.51630672621876
H          11.61115800026021    3.13046213015552   -4.52493952410735
H          13.48540789335483    3.44447349492617   -6.74649883985052
H          11.86821405538157    3.75825124277220   -6.71631163630688
H          14.84605832246075    2.89411210532135   -3.01474469687671
H          14.29719758673367    1.28259497799594   -2.51625045262537
H          12.65932275656005    3.69880167688023   -2.33230688662691
H          13.37518555171478    2.89104475427544   -1.09969887541113
H          13.98929799124979    1.16303091785316   -7.09309622331815
H          12.43629718050606    0.09507795439860   -8.81931410522340
H          12.36028015367021   -2.49087014883405   -8.78202587938909
H          11.18457446251549   -2.96876046312764   -6.66603524624278
H           9.83921328994586   -2.73211181268122   -4.38782627729740
H           8.91161877031770   -2.05946848691707   -2.20587439971632
H          14.96188320351877   -1.54978037881355   -8.84819474378157
H          14.29867938076278    1.32214777892538   -9.67340675589807
H          20.66316017998665    0.26968680663976  -12.22370327799362
H          24.27646718919036    3.70618031562713  -13.85748296000969
H          21.34556406866066    8.42449563285143  -13.94842198371943
H          25.55412509588384    8.25166856941892  -14.63145693371646
H          25.52386870571528    5.78743568056072  -14.33370879316593
H          20.08466770050720    6.38284661794499  -13.49116962449342
