107
 SCF done       -226.168295114139          0.000869444310
C           3.54420589165342    4.73116800302037   -6.91667496470352
C           2.76809099860300    5.80498845450050   -7.25439538175203
F           2.28897087086846    5.90768918613767   -8.50492319543412
C           2.44536213021601    6.81697562604936   -6.33858383187651
C           2.92284817186453    6.73100109242554   -5.06060111544458
C           3.72739357760714    5.64492918074098   -4.65761490443056
C           4.04228173985814    4.62408483393408   -5.60317450028567
C           4.83546151001872    3.51907367202632   -5.22068194782306
C           5.29459157755654    3.43343646584263   -3.93193886560836
C           4.99200820192153    4.46677877069485   -2.99717128450663
C           4.22899504497579    5.54654212830871   -3.34158338618216
C           5.63140369519512    4.16680641397276   -1.70851865870010
O           5.58725709924200    4.79188343591579   -0.67923850935698
C           6.43493084338168    2.92015093011511   -1.95090925229374
C           6.07901536131638    2.40419339053542   -3.26537427182131
C           6.30677254866850    1.14331334310675   -3.73911189005142
C           6.90804375287873    0.11350865961659   -2.99260090333153
N           7.37050162997032   -0.76869704517489   -2.42163336111196
C           5.91712334119973    0.69230179008362   -5.02028047053171
N           5.64151075506556    0.26951519620702   -6.05034277123875
C           7.37760314531118    2.58412622597991   -1.05568872340557
C           8.44812503416933    1.60448346268046   -1.12629582324278
C           9.44145326416822    1.57523148075830   -2.11586839994260
C           9.48948268419219    2.50470844999758   -3.26623284442811
O           8.69952004301777    3.35486098851123   -3.56018456850562
S          10.94961645051007    2.16956139916719   -4.23462268797563
C          11.48621920413794    0.82298383233597   -3.16000582425722
O          12.48577984327194    0.20931224197197   -3.35972589251877
C          10.50059615199899    0.66785549812842   -2.06861146982742
C          10.64035492384392   -0.27425166216383   -1.03808559624523
C           9.62386084552871   -0.26798769000955   -0.07203819197880
C           8.57691663401880    0.64000863396187   -0.11652482265748
C           7.54620081310201    0.44984269496032    0.92452372487678
O           6.53910722321981    1.07739552568120    1.06264550418750
S           8.02174151850829   -0.92439057528309    1.96161316628450
C           9.52498998404904   -1.25449224608195    1.02555659116714
O          10.26804417103978   -2.14645345844036    1.29025447648137
C          11.77415759397215   -1.17604106071844   -0.95305662300941
S          12.88809854025783   -1.01757772871628    0.36748968038689
C          13.83865574524861   -2.33809704365524   -0.24085305672400
C          13.30626001191280   -2.85823122091727   -1.39123696094136
C          12.12821249877650   -2.19139362101252   -1.80016501282233
C          11.28315124621134   -2.73338415002922   -2.90922803726202
C          10.36732591257489   -3.73109208514519   -2.24056125103452
C           9.05847337221591   -3.59933424744888   -2.15725785071121
C          12.12667027988184   -3.42058332576306   -4.00980763742383
C          13.62683721100162   -3.41983835971459   -3.72265946068298
C          13.90179975079168   -3.88388598128201   -2.29123245944164
C          15.00595846308107   -2.79793981254307    0.48033608589793
C          15.10655297583840   -4.12366047067195    0.94102997352364
C          14.05619400052953   -5.15536251816718    0.79243413167611
O          12.98061522814674   -5.06996336702013    0.28908602043738
S          14.64110346807570   -6.69464285990015    1.53338191335145
C          16.21312305316583   -5.99856058881378    1.99811893701183
O          17.09945565267475   -6.61491906558011    2.51102200607012
C          16.22635062611314   -4.56830639406673    1.63075816773645
C          17.32842624708700   -3.74997573230997    1.90506958487037
C          17.22865158924696   -2.42856594467296    1.45241887190392
C          16.10606420811691   -1.97179819052292    0.76381895534569
C          16.22642803642735   -0.58444743086732    0.27051937328963
O          15.47590575169690    0.03317844524251   -0.41681257629051
S          17.79708999439097    0.10036178347514    0.83591792530840
C          18.29318083601295   -1.41689523131582    1.63193983648811
O          19.34314594485684   -1.54570155089857    2.19149523514322
C          18.46279579364065   -4.28066684405616    2.64200286152726
C          19.75242088354132   -4.35719718535454    2.27967843776979
C          20.76638589655684   -4.72452007542939    3.32470445908471
O          20.52784924284888   -5.18357484440165    4.41283996541178
C          22.06262441538560   -4.34153141917443    2.74975945322509
C          23.29640458796267   -4.37428977800352    3.33528804584333
C          24.41844028118244   -3.92781267704213    2.60456668986326
C          24.23573367453602   -3.43695733621226    1.27770206560076
C          25.35818619407363   -2.98517730659416    0.55582738875203
C          26.59404063676686   -3.03134091085581    1.13904206739779
C          26.79379465250252   -3.51264069916934    2.44114117440273
C          25.71572185340913   -3.95233326731873    3.15728970811736
F          27.66612900945607   -2.60426251670295    0.45180087569031
C          22.94739358916909   -3.41233297775144    0.69746613822102
C          21.87385052251562   -3.87010449607584    1.41724880835258
C          20.46552545279283   -3.99233483658752    1.06241731795528
C          19.95590018334927   -3.90304334434394   -0.20236206286085
C          18.62719195663346   -4.18089963451613   -0.57846489720023
N          17.57375989204026   -4.40464626133151   -0.97806466881537
C          20.72534652424061   -3.56579178355096   -1.34022265681356
N          21.28808515185780   -3.29046466141789   -2.30069755414247
H           3.77017310220674    3.96959530008403   -7.64656468186619
H           1.82843888047493    7.63995146148519   -6.66287292140667
H           2.68781482083159    7.49815795487449   -4.33846429179133
H           5.06757465607763    2.76942148099606   -5.96021423735539
H           4.00942449973092    6.31513633214946   -2.61586005574574
H           7.34440346510430    3.15323950157670   -0.12877477926175
H          10.67266696688799   -1.93471591116633   -3.33976693364664
H          10.87021666825999   -4.57555245604737   -1.79015303087454
H           8.53706419193177   -2.75670912418065   -2.57978893814944
H           8.44965863500164   -4.33544428775768   -1.66040882993945
H          11.94757173194721   -2.92067260083961   -4.96194145584872
H          11.78438714301089   -4.45278244367170   -4.11256138408531
H          14.13076374239632   -4.07626776246317   -4.43295692352138
H          14.02386120683258   -2.41048679052951   -3.84822262995844
H          14.97123851620703   -3.99602741580567   -2.10491759328866
H          13.42260995359491   -4.85206312023597   -2.12093974457920
H          18.23857800026736   -4.66571025922445    3.63402106795517
H          23.41253562320846   -4.73855945089670    4.34496070004350
H          25.24254226209026   -2.61080883878673   -0.44928073154408
H          27.79241845926790   -3.52469087626541    2.84817094778643
H          25.84434407042492   -4.32675719818789    4.16153252831284
H          22.84095409404982   -3.02234122092862   -0.30207062133146
