102
 SCF done       -222.450101335566          0.000951652002
C           3.29313177287996    4.27671837879857   -6.80758044676289
C           2.40118474737665    5.19992032278789   -7.27819941524031
F           2.01844942626201    5.15399902048281   -8.56529914778385
C           1.86039429847542    6.20574783658850   -6.46430315288092
C           2.23669426196870    6.26932315617227   -5.15162491298211
C           3.15318347410590    5.34236200061294   -4.61325187782962
C           3.69026894032753    4.32511558823938   -5.45666570675649
C           4.60178353628392    3.37774261021774   -4.93843536562072
C           4.96138984574581    3.44110007092864   -3.61726749210541
C           4.43425743665127    4.47153971565201   -2.78447662538188
C           3.55309485010010    5.40043818919839   -3.26039140831292
C           5.00552022030928    4.35493125432059   -1.43412637539633
O           4.77749472159827    5.02484484039933   -0.45871838030760
C           6.00952511012881    3.24532389303171   -1.53383304379633
C           5.83492747250903    2.58898364605993   -2.82193146667901
C           6.28095718047269    1.34840486112199   -3.18175966246534
C           6.96197610238690    0.44697142906931   -2.33895094722010
N           7.49571207999678   -0.36103028647706   -1.72134566273096
C           6.06500144886844    0.77071256689656   -4.45344779951527
N           5.94352391234062    0.25242030333758   -5.46946827513071
C           6.95451044493131    3.13022114069401   -0.58465583974242
C           8.15328147870583    2.31694929878799   -0.61416334588598
C           9.11847648197783    2.38221414807110   -1.63462889570177
C           9.08669327240189    3.36901074480880   -2.73687654707493
O           8.21795937389309    4.14634994859284   -3.00799275579020
S          10.59465655250346    3.23849365315432   -3.67772714275035
C          11.24800972930315    1.91988258926986   -2.62789331412365
O          12.38046832771452    1.55623741032169   -2.71149434575115
C          10.21135753736698    1.52885005436963   -1.65467227865278
C          10.38235265294366    0.46890737453227   -0.71785370962144
C           9.56570438271588    0.59212280231505    0.44124093685023
C           8.47561405845508    1.46256429808928    0.44736156056728
C           7.58780558410882    1.34395210149538    1.61897218783332
O           6.53628582160593    1.88256318273824    1.79267093471569
S           8.32024632717391    0.20512530984581    2.78207333551949
C           9.71732350665989   -0.12413229559644    1.71583757960594
O          10.63542218141821   -0.79939948557821    2.10162974996654
C          11.20974908063743   -0.63381874426193   -1.07013764143941
N          11.78642819723740   -1.52311469088043   -0.19269737213527
C          12.40110567494855   -2.49139397681577   -0.90487334947215
C          13.14495944120507   -3.66202871745247   -0.80205322565159
C          13.37904654527633   -4.08797887714323   -2.11677424464451
N          12.79861705420509   -3.20730949041977   -3.00201498931028
C          12.19614258353077   -2.22190926541009   -2.29014202544203
C          11.45213424741521   -1.06106099089730   -2.39421401656324
C          14.08392668860190   -5.25629058075399   -2.50838611008466
C          14.37141238527172   -5.59224034345019   -3.78595629685993
C          15.10082821419880   -6.75773858535151   -4.19830256596248
C          14.93591927500038   -8.04945023150667   -3.64891001811815
C          13.84525462611984   -8.41726201559734   -2.72490295337216
O          12.94796770407826   -7.75340557348400   -2.30608785500638
S          13.98326451744093  -10.17185835229260   -2.31623065425834
C          15.39517803830422  -10.41101002831342   -3.37434819853094
O          15.95656495380393  -11.46269336809732   -3.48172507043275
C          15.70597221131768   -9.13795581438030   -4.06185456368752
C          16.67591916625901   -9.03031096057550   -5.06683263243591
C          16.79932719449403   -7.76275547619022   -5.64942160622220
C          16.04024994085652   -6.67382787141531   -5.25096913841883
C          16.31514936734693   -5.44819567940948   -6.02631440334376
O          15.84057566058859   -4.35940006126605   -5.89328708174055
S          17.54353066400389   -5.81065502797525   -7.28983529247910
C          17.68570748604060   -7.52228517179233   -6.80487303553402
O          18.38241538144917   -8.32106892752943   -7.35594168393283
C          17.52004675078134  -10.12565265646225   -5.51479844326983
C          17.16321821136777  -11.31670149821458   -6.02095634275587
C          18.20586046433485  -12.38993522002440   -6.14424288761071
O          19.39854900477808  -12.23324970952917   -6.07568487829854
C          17.44769126763763  -13.64100650913164   -6.29073044223886
C          17.91656742720101  -14.92364843535345   -6.32891769754158
C          16.99921970932343  -15.99031875800449   -6.44748168593209
C          15.60269203778146  -15.70623890400614   -6.50864324256934
C          14.69132592997088  -16.77480896731950   -6.62113794234692
C          15.16389116225459  -18.05669170188075   -6.67334069723593
C          16.53277562062417  -18.35616435406885   -6.61593659089378
C          17.43104210258910  -17.33182156812449   -6.50407237693581
F          14.29750434999525  -19.07738298466034   -6.78439424478828
C          15.14488712165873  -14.37021550510708   -6.46365522096233
C          16.05425813131416  -13.34893310532678   -6.36810926991192
C          15.86866969547964  -11.90445601585474   -6.33900052474550
C          14.72351336315692  -11.24351510466846   -6.68320902948726
C          14.60276480874499   -9.84763559712095   -6.82797331820644
N          14.43137247352218   -8.72328871937035   -6.98641917633373
C          13.50581645701681  -11.88691403449584   -7.00263398282217
N          12.48895554567334  -12.34576216714648   -7.26830148461904
H           3.68682380786199    3.51482480776193   -7.46203778489149
H           1.16075420489130    6.90638359094367   -6.89177569456466
H           1.83402611731437    7.03501791365310   -4.50599148250819
H           5.00113977751594    2.62886442061032   -5.60359026809788
H           3.16516470311395    6.17001903458973   -2.61008202773287
H           6.79915460480711    3.73303456806573    0.30561236129671
H          11.72250173994943   -1.44353052330139    0.81543505282492
H          13.47690353876325   -4.16469386309122    0.08342291663411
H          12.84108147929337   -3.28077014929679   -4.00362162251912
H          11.07329753276739   -0.60274708375629   -3.28427181851091
H          14.42726128240669   -5.87459527624354   -1.69188670237268
H          14.13679480496311   -4.90361392505741   -4.58445191051870
H          18.59047925371245   -9.96536759012914   -5.41351772926658
H          18.97652683862634  -15.12043757728106   -6.27048506686652
H          13.63123796465852  -16.58097961795422   -6.67041570246928
H          16.84591849333288  -19.38718427217432   -6.66101311879287
H          18.48960113330526  -17.53813782927629   -6.45783043802412
H          14.08266623467030  -14.18792795744650   -6.49676440211481
