124
 SCF done       -235.351056110936          0.000723718083
C           9.80837372431186    5.29111880702915  -14.51532014820333
C           9.14457701983064    6.05211885528050  -15.43700672092874
F           9.34325412245012    5.82824463298976  -16.74919726254941
C           8.25370493628224    7.06992014037745  -15.07034005969192
C           8.03769136156842    7.31288264542666  -13.74234114908336
C           8.69570310185675    6.55887751425876  -12.74920421188702
C           9.60046641649433    5.52991730564270  -13.14318762926536
C          10.28105163467736    4.76635932048596  -12.16536189020297
C          10.05770604327280    5.02681684953442  -10.84174740737335
C           9.13313977030732    6.03837643225451  -10.45183852080654
C           8.47005583599215    6.79528210194999  -11.37415597545457
C           9.03167712956690    6.06184740979704   -8.98054388364798
O           8.38551403962817    6.81393906375702   -8.28668831750256
C           9.85346809858693    4.90855045838391   -8.51530480176631
C          10.62430585149753    4.42865923702973   -9.63596289624852
C          11.81532765231338    3.75042863458682   -9.58347967695059
C          12.45311407498414    3.39411289945404   -8.38163863883683
N          12.99322123960759    3.09139767667360   -7.41390409262298
C          12.58872728217136    3.42478165622427  -10.71733347006889
N          13.27432926205591    3.14801497337268  -11.59460465718229
C           9.69053097252853    4.45556193975789   -7.23684688653143
C          10.00233134940986    3.18699529862880   -6.71926495160268
S           9.97808555776082    2.86279213328456   -4.99494808303269
C          10.35502526864875    1.17089321956347   -5.15633350988757
C          10.47280367229035    0.85742115827497   -6.51901194677979
C          10.27598688801679    1.98759178460808   -7.35862344994116
O          10.34883635589506    1.64664891500035   -8.65547410422504
C          10.61158707036492    0.30911662319094   -8.66282861277434
N          10.74085957457917   -0.31887156896894   -9.91846795895488
O          10.95501158425084   -1.51787444375118   -9.90806263712103
O          10.62377082158103    0.37338706694910  -10.90905171409314
C          10.69977114574944   -0.22473655357162   -7.40238847759438
C          10.46669404541194    0.37150129404904   -4.00175170249837
C          10.75094597966115   -0.95810276059020   -4.01312483075071
C          10.82393291965213   -1.83017452871334   -2.88242600793813
C          11.03840713232782   -3.17862647126547   -3.10817938138685
C          11.05783495901455   -4.08782689630900   -2.03905871275213
C          11.20931848712497   -5.46989396931856   -2.01855221311398
C          11.44359648551902   -6.35246833044472   -3.19482258651890
C          12.74189821100087   -7.17223142342148   -3.04286565092272
N          13.26556645908434   -7.47266901294889   -4.35793755529198
C          10.22447737854189   -7.25500292248135   -3.46307329428995
N          10.39047854875233   -7.97403472064960   -4.71577968405795
C          11.10085033566469   -5.87492561439092   -0.63600850510543
C          11.11887431580814   -7.08903127385069   -0.05578471066341
C          10.96378974060203   -7.25510441635746    1.42015890576151
C          10.82756733594582   -5.97956467539565    2.18312976032127
C          10.78147013146769   -4.77518451861623    1.58651198696473
C          10.90264163212361   -4.66604241907189    0.17922408403760
C          10.87022337227922   -3.59072660792298   -0.68175355441112
C          10.68613699927576   -2.20250634332777   -0.47302061763520
C          10.65956419495686   -1.36009403278000   -1.53391625938745
C          12.08290468372073   -8.14541099588408    1.89070626995738
C          13.09471316040651   -7.75289974899309    2.67148654066305
C          14.14039711292405   -8.64441268392168    3.07137582014588
S          15.43254905303074   -8.15496477812319    4.13125870714825
C          16.23714643759632   -9.70688156176273    4.10664965783505
C          15.48789926528580  -10.58512445006940    3.31827327773709
C          14.33471195545300   -9.97142822928408    2.74926133828592
O          13.62333150218862  -10.85924392024051    2.02092297435913
C          14.29090184916529  -12.03883984544614    2.14794348575485
N          13.76050172011326  -13.17110026240453    1.48548574570365
O          14.34581324538541  -14.22309462899703    1.65605958402721
O          12.76751391420160  -13.01328686325497    0.80778520000825
C          15.41306091978334  -11.94743047787092    2.92438593640480
C          17.42485268164807   -9.89877751618077    4.85394340324784
C          18.38018925782122  -10.84422800462814    4.62075725876642
C          18.42812021405054  -11.59085020671533    3.42034181444588
C          19.04549923639786  -12.75449503627774    3.07223789429474
C          18.59462900316977  -13.36147169708230    1.78022703835908
O          17.96093250289648  -12.79582286789717    0.91666119495609
C          19.00532588525560  -14.76909476650488    1.83875021249450
C          18.72139071827995  -15.78118833856599    0.96699493989546
C          19.18237482171522  -17.08437654907501    1.25389506997789
C          19.92271446515058  -17.31356744033209    2.45055610960405
C          20.37258344285952  -18.61716008234838    2.73626791573773
C          20.09304634408265  -19.63018341815871    1.86136893210464
C          19.36730935975119  -19.42471169593885    0.67972552392503
C          18.92151540694506  -18.16589176287563    0.38749360484198
F          20.52321521297657  -20.87492904205740    2.13185453864802
C          20.19986778685512  -16.24495170733345    3.33520499192196
C          19.75529911100343  -14.98637120225127    3.03075501831584
C          19.90693336542920  -13.71158144562265    3.73439909351238
C          20.83123963330698  -13.47722841812925    4.71817129188306
C          21.14660882750300  -12.21262890654402    5.25053887436433
N          21.46624033176087  -11.20715502883832    5.70382644345390
C          21.66624454852073  -14.47310824724816    5.26970526222432
N          22.36851666126693  -15.23197105656673    5.76780021528729
H          10.48864979639493    4.51643670293273  -14.83278719979406
H           7.75834331191965    7.63765660621107  -15.84201973914637
H           7.35486709024920    8.09098401296050  -13.43537469160566
H          10.94799355915630    3.98188792066683  -12.48629344213568
H           7.77830963593022    7.56290228128158  -11.06066168674894
H           9.17519721343389    5.13381529866518   -6.56482975508467
H          10.89959147534673   -1.25443412101297   -7.19104212256808
H          10.29532872565057    0.88918807306492   -3.06927435716864
H          10.92101911487239   -1.43049624803160   -4.96982383411946
H          11.17622690683865   -3.53674847359185   -4.11841759848441
H          11.58861973643437   -5.72264194619285   -4.07798568375369
H          12.53991376900939   -8.06952265655910   -2.43598213884368
H          13.48496351777260   -6.56788471210120   -2.51119658983133
H          12.58735292014383   -8.03763044411223   -4.86094628119116
H          14.13577085834625   -7.98782844370903   -4.29172221093741
H           9.31788668743939   -6.62481758311737   -3.44050635729283
H          10.12970830822298   -7.99692120170661   -2.66602323946903
H          10.39277146714257   -7.32252903690579   -5.49452579669209
H           9.62297595063149   -8.62190528780608   -4.85653957312735
H          11.25371431836998   -7.99790198813324   -0.62318571386042
H          10.03469189865574   -7.83252049923626    1.57259724594367
H          10.73243482340931   -6.07855896560913    3.25384211874579
H          10.65422514279250   -3.87525633197865    2.17023621921605
H          10.56161888965743   -1.82936394529030    0.53277135247191
H          10.51590392198869   -0.30417419099183   -1.37104615884253
H          12.04938237306123   -9.16188079286234    1.52525895957049
H          13.15898739018252   -6.73932757179186    3.03948868683887
H          16.06630421902049  -12.75970153108951    3.16314767194111
H          17.56253997559794   -9.22542873583319    5.68958775941780
H          19.15251801552033  -10.96796387866213    5.36255051179262
H          17.82203067621864  -11.19102509445613    2.61171103539866
H          18.14723765566831  -15.58870615081626    0.07348581257167
H          20.93591394779448  -18.81215400064551    3.63544111939833
H          19.17632630733410  -20.26305835931389    0.02877107500537
H          18.35896346694816  -17.98236334331948   -0.51527173129098
H          20.74842577152203  -16.45584502236763    4.23912942744795
