144
 SCF done       -244.534330942813          0.000571614250
C          12.60295054140815  -12.99658908688413   10.28907423149479
C          13.09188784854970  -13.94892908134568   11.13927244052646
F          12.59155907195769  -14.04454069001009   12.38548372052574
C          14.10586482862013  -14.84091462420610   10.76568779931579
C          14.62755895137693  -14.75806784842269    9.50452476813350
C          14.16142334258734  -13.79448365978771    8.58725381389463
C          13.12805471094012  -12.89798311199745    8.98603844834423
C          12.63804221515654  -11.92676171577100    8.08124950933878
C          13.16899321177849  -11.85482265137949    6.82230333473251
C          14.21482648955039  -12.74105994539851    6.43598899179756
C          14.69997402773800  -13.69306900238703    7.28450375089661
C          14.63802038523223  -12.41930573703333    5.05921603443226
O          15.46594125635786  -12.98982297298583    4.38417829712951
C          13.87149410727130  -11.20175959023078    4.68481715847441
C          12.85595195658655  -10.98564096703566    5.68847080025224
C          11.68479211737387  -10.28332523354051    5.53591395503352
C          11.30113434095772   -9.64547209982930    4.34048464021498
N          10.92872014026021   -9.15506450854115    3.37173410021440
C          10.68817886441370  -10.20486525680856    6.52997110236114
N           9.86060194556364  -10.11994933711568    7.32061897414158
C          14.23377616903631  -10.52077615379329    3.55775413897658
C          13.93501850370680   -9.20697313480593    3.13594927382109
S          13.85396757850933   -8.91054919853979    1.41972497191875
C          13.40829080080614   -7.25369502874615    1.66576431446126
C          13.42195680822380   -6.93468920333334    3.01810981224399
C          13.72187291857553   -8.02687153478150    3.84319822284973
C          13.99667719080212   -7.86582420715578    5.30492056012135
C          13.40080814223944   -6.56394476000715    5.85632676912548
C          11.96339867035112   -6.66126590195185    5.94680184162521
N          10.82635710195806   -6.74453296002372    6.02347316092145
C          13.80807082697443   -5.38602158635374    4.95169490833759
O          15.21983373610021   -5.37401039159934    4.93005436891924
C          15.79789113719970   -4.18903232842490    4.44523460568047
C          13.17024910285419   -5.56580429723664    3.56754984563975
C          13.10754425159617   -6.46434983906435    0.51750605988707
C          12.33109617789878   -5.35911197074689    0.50386675313503
C          12.02341506793843   -4.54742497042511   -0.64552654064355
C          12.69932987680808   -4.64043490324729   -1.84130315967337
C          12.35551813313999   -3.79930079535232   -2.91796235394872
C          12.88580728128986   -3.69322641029959   -4.19827317996879
C          13.98201883293468   -4.55687039294197   -4.73224294429346
C          13.42610693198777   -5.69927793609526   -5.62979716275275
N          12.69409955067283   -5.30373274481992   -6.81104373473927
C          15.10413580541546   -3.76930863416592   -5.42383251603738
N          15.75104542135958   -2.91849125197732   -4.44084606892929
C          12.13207488060125   -2.65548271413432   -4.87419727124111
C          12.18795171323310   -2.13733077744629   -6.11746750392346
C          11.28312429812260   -1.04579360508664   -6.57019566630705
C          10.29714370375314   -0.57670225904284   -5.54323051127327
C          10.23845814263205   -1.10835646748900   -4.31059368347630
C          11.12840853416420   -2.13881687286738   -3.92512642856257
C          11.27565062629984   -2.83758458515707   -2.74817328071308
C          10.59665720573784   -2.76022889933980   -1.50863152257138
C          10.96635065359528   -3.58365322231753   -0.49962873763706
C          10.51286103754146   -1.40026410188896   -7.81582196892556
C          10.33419533245435   -2.64047432370483   -8.27772697927820
C           9.56812447084337   -2.96560706491622   -9.44299286513887
S           8.63013650914638   -1.77225742155827  -10.27216453405975
C           8.06384231551758   -2.94218287236602  -11.43328397626670
C           8.61754367008897   -4.19328830422808  -11.17199609966147
C           9.45134895037934   -4.20771459223772  -10.04642092900870
C          10.11698350560862   -5.45525681167420   -9.56000329261558
C          10.22187401969337   -6.48354688514760  -10.69470574058934
C          11.16737423728026   -6.03706755560587  -11.68849339520176
N          11.91434252810060   -5.66953005121130  -12.47157346847359
C           8.83439080272273   -6.69839237526325  -11.33075680994276
O           7.97979994009459   -7.12300589250539  -10.28963342408490
C           6.82902239396645   -7.81064191247275  -10.70742261295213
C           8.36087279509021   -5.40525181606466  -12.01230933140957
C           7.19904147417171   -2.61714812008478  -12.50372378480797
C           6.48377787861775   -1.47174176878998  -12.69035144180283
C           6.28804838061107   -0.45090184181353  -11.73666668862393
C           5.75651858102642    0.78879126646606  -11.94965143386475
C           5.20053463355544    1.56440123598154  -10.81308813486468
O           5.35614755845638    1.33674931703392   -9.63336898369738
C           4.38615599453584    2.62938019330311  -11.43190894854325
C           3.57589475117121    3.54964605665095  -10.83308399020056
C           2.85619376457105    4.46234972962430  -11.63670963811994
C           2.98998617790911    4.39952391395658  -13.05419043516176
C           2.26435165616070    5.30726801751009  -13.84971372140262
C           1.45230783950649    6.22743777739758  -13.24739174586353
C           1.30831191553444    6.30617612113143  -11.85571527074389
C           2.00471997077449    5.43173264560391  -11.06860341519196
F           0.75860834622134    7.09608847969720  -14.00608936250593
C           3.84339886393136    3.43970260619952  -13.64764219321352
C           4.53492322662301    2.57091647255738  -12.84820309152950
C           5.49390727653717    1.51533326095234  -13.16876697393212
C           6.16466663790725    1.38000243633865  -14.35776813256999
C           7.29204579077723    0.55023765291551  -14.53044430286491
N           8.24655176279498   -0.06300180296920  -14.70582919898339
C           5.87907319287280    2.13997529897074  -15.50960208700347
N           5.67043940818859    2.71719743909178  -16.47998621461624
H          11.81832744419428  -12.32890524708457   10.60914383375020
H          14.45190991343816  -15.57159734745586   11.47943082390061
H          15.40967269866585  -15.43419436084508    9.19333613136628
H          11.86019104880629  -11.25728017180212    8.41252808226100
H          15.48728516154212  -14.36038478211421    6.96737205395423
H          14.87277954738824  -11.08903392037753    2.88613030570254
H          15.08243312620491   -7.81365979773190    5.43592340602256
H          13.63127819543105   -8.71146925023665    5.88665008925267
H          13.79443374546951   -6.39141329905679    6.86492317781427
H          13.44022178621539   -4.44101479078029    5.38889380674858
H          16.86721393234132   -4.28032923538196    4.62608524616224
H          15.41102426558235   -3.31243026852474    4.97914984070843
H          15.62769414271341   -4.05528504181365    3.37152572165834
H          13.55471963580734   -4.81115690862702    2.87800177705862
H          12.09223369118183   -5.40909306123793    3.67668955077639
H          13.50458147758977   -6.85089243020868   -0.41167321668339
H          11.83673325783976   -5.06041141726542    1.41634242577824
H          13.50964961511380   -5.34392955144349   -1.95588131666413
H          14.45402998309931   -5.04802368757094   -3.87598867221265
H          12.75194081852959   -6.30919231441862   -5.02205206933851
H          14.26227894209635   -6.32631064698031   -5.95013915089085
H          11.90087263062945   -4.73250187263584   -6.53899029591573
H          13.28618236022391   -4.76534982780078   -7.43425202513055
H          14.71955254429121   -3.20990775985555   -6.29132391741554
H          15.85497639320336   -4.47567711050931   -5.79295706726366
H          15.07893617040813   -2.26739607840862   -4.04737276364095
H          16.50083903176111   -2.38365551872853   -4.86422776414387
H          12.89988990655194   -2.46886229717217   -6.86079666523241
H          11.92722769357525   -0.18938295732612   -6.83491827685523
H           9.62160239211455    0.20415869013227   -5.85543777278648
H           9.51289514883153   -0.75384741730813   -3.59308630509597
H           9.79711906377912   -2.04526489661796   -1.38239122844172
H          10.45789085562937   -3.53736585439016    0.45268732089314
H          10.04217393427245   -0.56671502831753   -8.31954591573455
H          10.78368028638600   -3.48314838641986   -7.77290971405450
H           9.51227239237655   -5.89822956959206   -8.76397365832199
H          11.11054203492696   -5.24813433196827   -9.15875947646537
H          10.57669006668834   -7.43500931233292  -10.28370724367665
H           8.90188834357391   -7.49189266527536  -12.09471277018643
H           7.08798083398371   -8.67362131408500  -11.33304333135854
H           6.13899929055278   -7.16610859213167  -11.26323179113534
H           6.33815263278052   -8.15583698035041   -9.79979356623916
H           7.29509233678397   -5.48863978004048  -12.23559811881319
H           8.89263461607734   -5.29844078942689  -12.96354207874434
H           7.13993044017089   -3.36798416327336  -13.28084685421405
H           5.96494475914355   -1.36654843032955  -13.63419601127848
H           6.45916365077920   -0.69324932888147  -10.69292457714036
H           3.48286036548312    3.58094221110880   -9.75777711201886
H           2.35299573782354    5.27743806773142  -14.92447245038767
H           0.65264856611226    7.05305852269197  -11.43698578154192
H           1.91004491957916    5.47250022332461   -9.99385088680910
H           3.92108445076397    3.41092273161890  -14.72302234119216
