142
 SCF done       -231.594325393799          0.000456368195
C          16.04556233331826   17.91467650111429   -0.08087830305174
C          17.21925125910537   18.43491714061837   -0.55029450190595
F          17.27968323279886   19.73692008521972   -0.88590649813686
C          18.37815737074820   17.66103159854844   -0.69977459861852
C          18.33629254387113   16.33641435723903   -0.36446599615837
C          17.15224919510865   15.74745309328712    0.12481588239720
C          15.98480510159610   16.55231545028271    0.27156134220878
C          14.78841696214388   15.98700034131356    0.77113196109063
C          14.76385755064403   14.66113760819217    1.10786256713482
C          15.92895897374121   13.85681967448413    0.94372562002326
C          17.09804140460889   14.37853734722372    0.47036024980937
C          15.62559125382625   12.46824823066443    1.34427011477463
O          16.38041014711982   11.52326160733040    1.38715597248656
C          14.16604691854189   12.45822736440391    1.62897072890348
C          13.70918117033231   13.83051124915380    1.68037966294317
C          12.63296269218918   14.29034566731366    2.39262067150057
C          11.82890115273178   13.45045705261925    3.19066789438676
N          11.19624895192708   12.80219085262219    3.89588687832315
C          12.28046787094019   15.65051046452961    2.49045360930916
N          11.94614447881933   16.74468203067928    2.58474298277113
C          13.49599928766357   11.27775307070486    1.70378762008199
C          12.11037638842847   11.02753545850321    1.54956216027778
S          11.06115340797164   12.06634451171393    0.61074117831636
C           9.74651034122169   10.99533125483298    0.84097938566607
C          10.06621771445409    9.90998137018706    1.60451070414177
C          11.42216950584462    9.91365026237375    1.99820047429540
C          12.02544392804938    8.83354413488950    2.83044161807870
C          10.94263315501870    7.96464080306570    3.48346824918998
C           9.89315105809396    7.57917562386301    2.43501120526122
C           9.11892809314874    8.82346175170511    2.00457437503540
C          11.58689821659053    6.76924159985165    4.14610327826692
C          11.46531332358859    6.56163738050420    5.45550442592672
C          12.35283977075979    5.87628973026125    3.28616534917696
C          13.49241954076476    5.27481292070617    3.65250154486748
C          14.29409255605212    4.39750120809506    2.82272282281166
C          15.62572467423432    4.22854548464670    3.11531360861155
C          16.44275601109673    3.41091287436745    2.30488344884745
C          17.79625453674040    3.11352073988683    2.35217759243351
C          18.82548090455426    3.56696902220074    3.33334697971802
C          18.98474766343400    5.09831733239950    3.33000419087023
N          20.30992556328816    5.44205574930303    3.81198355113088
C          18.50199562421210    3.02838703385787    4.73939849853369
N          19.59839536481907    3.27980873451420    5.66271762947375
C          18.06302092241110    2.21211940197009    1.25491473482440
C          19.20530648549441    1.63724153259336    0.83719174299758
C          19.23284034575702    0.69802971777302   -0.31376935019291
C          17.91126590344785    0.50738302485351   -0.99534911380677
C          16.78207033595370    1.10964367922549   -0.57994487632554
C          16.80196153385694    1.96940254165402    0.54289587520186
C          15.82935655963973    2.71465601667855    1.17908305798817
C          14.45023464033537    2.88359772591340    0.91889561259624
C          13.71531790524742    3.70582610945944    1.70899778587691
C          19.76131710152282   -0.66362011457182    0.07175640251420
C          20.01375750393520   -1.06695391847560    1.31621348416214
C          20.47748384515379   -2.38280730979314    1.66065517735269
S          20.41929065558589   -3.69276829830009    0.51252665251704
C          21.10317615221330   -4.77316888427753    1.65867426019706
C          21.36413991229596   -4.17423844334790    2.85128300556307
C          21.00372709172675   -2.80188687478796    2.85908191871499
C          21.25585856546789   -1.91304686883289    4.03891402670397
C          21.58082594557180   -2.72711928288529    5.30199326846204
C          22.60084466838734   -3.81422762097752    4.96408001837237
C          21.95628945932436   -4.85045454377090    4.04727152913426
C          22.02342148279513   -1.77527108688754    6.39115677759354
C          23.30057081780888   -1.61987779525789    6.75062589031596
C          20.95426395060921   -1.04521219266210    7.04683084401182
C          21.03212747295731    0.21430478291722    7.53419334399680
C          22.14028067513383    1.07460897331728    7.29554160403579
C          22.63748186796429    2.13514169852640    7.98978314214621
C          23.98860716553416    2.61570320360610    7.57288748241412
O          24.54659178195215    2.36090925990554    6.52895506192195
C          24.51033394645619    3.37983980739079    8.71660214497624
C          25.74733154627128    3.93042508310949    8.88846298751688
C          26.05169502712834    4.57374500481630   10.10869499645451
C          25.06151389245100    4.62607116243686   11.13255431408804
C          25.37404000189080    5.25634405728270   12.35287808204829
C          26.61451628468429    5.80394909805718   12.52703449494358
C          27.60044675888265    5.76466846939127   11.53184093280088
C          27.31409486032371    5.15621593552140   10.34131775815915
F          26.91524672166230    6.40539401236373   13.69275543630125
C          23.78533330768172    4.05413508168027   10.92186341091827
C          23.50817121468422    3.44563266620923    9.72636471079859
C          22.29168439298527    2.80651838938350    9.22617082106531
C          21.04892424049834    2.98859672252838    9.78105576105206
C          20.81209790566903    3.67543462605453   10.98995122397911
N          20.54702049048919    4.20353641064794   11.97443546443817
C          19.83849799097858    2.62375190516852    9.17150266131697
N          18.82238669968737    2.39409432010422    8.68437167043863
H          15.17368469140792   18.54111683920834    0.02505247953324
H          19.27567989840724   18.12655857124819   -1.07510872882995
H          19.21608232211620   15.71967429708325   -0.47084874311034
H          13.91627620660682   16.61453834318084    0.86695968579151
H          17.97274015670252   13.75482278629239    0.36183300485805
H          14.12204782396960   10.39652269224189    1.81324403538504
H           8.79914609928299   11.22888314154259    0.39565121896179
H          12.66383677768399    9.26514466357506    3.60403154138826
H          12.66289797874040    8.20639387833956    2.19586205328322
H          10.44314703678054    8.55881320008113    4.25559036651034
H           9.20532762069849    6.84077409722906    2.85075043727537
H          10.37918566970044    7.14061837143802    1.56147728131925
H           8.50722140978501    9.18115926251537    2.83851422324116
H           8.44307242320961    8.59210431974755    1.17833231375774
H          10.90454457694436    7.23003728583286    6.08642546159178
H          11.90321111516988    5.70420755858933    5.93633470687847
H          11.97698171691383    5.74598874798594    2.28070358516868
H          13.90190005826918    5.49067624366901    4.63131355615362
H          16.05426737576241    4.74786435052696    3.95923400395695
H          19.79847553980350    3.16118178464403    3.03832123381755
H          18.17368050608355    5.55100389786424    3.92151450629217
H          18.89274356877710    5.46585381517949    2.30193336821945
H          20.42074173216927    5.05237129754797    4.74504430211793
H          20.41257934954394    6.44963559925729    3.87012452951450
H          18.25323537448624    1.95608511412536    4.65084691288136
H          17.61960890227569    3.53632325840914    5.13334119722000
H          20.40300876356975    2.71073447215949    5.41589286843176
H          19.31352948784756    3.02748443073616    6.60375902023249
H          20.15386131926178    1.83403461664110    1.31882540750891
H          19.94033352834987    1.10561771577494   -1.05618924485901
H          17.90946892607588   -0.16234576372458   -1.84196394318875
H          15.84824378255949    0.94379398220796   -1.09802591208137
H          13.99688682783225    2.35502876088803    0.09261487260291
H          12.65854519713096    3.82651538029969    1.52453430251914
H          19.89973671419044   -1.34989518589646   -0.75314432903262
H          19.88230674538074   -0.38944157330609    2.14889074193939
H          21.27509390069481   -5.79417854805031    1.38110825159103
H          20.38982063525569   -1.27200047763511    4.22565488912946
H          22.10412987004728   -1.25678655906118    3.81304114655906
H          20.66023741211458   -3.22017903981052    5.63718523088304
H          22.95069053781092   -4.29734487860626    5.87814594897759
H          23.45829421113648   -3.37225978681109    4.45340537580278
H          21.16689182932521   -5.38092619505987    4.59026769872582
H          22.69091780172218   -5.59382527253869    3.73124293981898
H          24.10343185393425   -2.14824246113525    6.26932152085760
H          23.57998376534826   -0.99162083120342    7.57876176239326
H          20.02102131891746   -1.58103081013643    7.16785896940058
H          20.19487509804644    0.58709956880131    8.10332947775197
H          22.74844773795210    0.81101598195343    6.43237682526323
H          26.48638045574740    3.87253910762305    8.10343767884974
H          24.63836761158366    5.30862258499653   13.14024247746456
H          28.56134976970286    6.21388599196595   11.72656475952057
H          28.05710520776955    5.11287941373496    9.55917469763202
H          23.06304053531033    4.10324899816062   11.72069567005380
