92
 SCF done       -187.175285743288          0.007076705157
C           2.07292401142812    5.55522705854466    6.28743389534002
C           1.08567794144326    6.36804610884047    6.77139970715592
F           1.20328276733698    6.89147991679603    8.00422372630003
C          -0.05944349387014    6.68351207090225    6.02710893766440
C          -0.19909877027962    6.15905371087534    4.77224795088694
C           0.78598391280450    5.31073081377899    4.22476852004756
C           1.94374206768918    5.00332575968065    4.99803874832664
C           2.94130918886170    4.14870341103776    4.47605295902473
C           2.78166766253215    3.61536908423015    3.22554086884651
C           1.62849851174918    3.93494932377168    2.45050136543845
C           0.65108013877467    4.75971638384949    2.93083988277552
C           1.71771538736186    3.26234635374259    1.14252570662917
O           0.91410962676982    3.26559836990164    0.23829352211631
C           3.06282744436563    2.61485423105252    1.12639475048060
C           3.61296893388102    2.68837471867934    2.46792458671902
C           4.57897139865198    1.87504935265757    2.99265557048763
C           5.19411792164557    0.82478371045348    2.28097430416467
N           5.69366082712679   -0.06798200104342    1.76069300248365
C           5.01820389031294    1.93561471132367    4.33238936410429
N           5.42149775376654    1.94949112713764    5.40640221433095
C           3.58051714865743    2.17544444631649   -0.04331125783148
C           4.95525811315450    1.90893214515430   -0.36038137639042
C           6.00850904880642    2.63279811998059    0.13241600037531
F           5.92093705951083    3.64357201436632    0.99843580035665
S           7.54162078396332    2.22348950765277   -0.52425543381882
C           6.76083026653729    1.00089072705999   -1.46760127228885
F           7.52152246053724    0.25450862052172   -2.26677501490696
C           5.40283399825658    0.92300130959110   -1.31637488665096
C           4.50928496076686   -0.01091818298694   -1.94209925263981
C           4.87528511548753   -1.01048750351084   -2.77148271804320
C           3.97441619322316   -1.91969187206136   -3.38887539460089
N           4.44817588790479   -2.91561033304615   -4.21371309072256
C           3.39567108149184   -3.63379587381710   -4.67519872108003
C           3.03174604458601   -4.68409893237029   -5.51597340062521
C           1.64043574208460   -4.76461144744606   -5.45176808572811
N           1.16333424660489   -3.78872836877463   -4.59843030615347
C           2.21964559570195   -3.08480629538884   -4.11165956137825
C           2.58144368342208   -2.00776133083213   -3.30767889879420
C           0.73199704224555   -5.53001089274593   -6.23475644812248
C           1.06036108206566   -6.42438979474774   -7.18649854435799
C           0.10122391889617   -6.91992873178510   -8.15286223892622
C           0.06915424876899   -8.20921104687818   -8.58881910114501
F           0.88506794152516   -9.18340521236028   -8.19267682369493
S          -1.20302495111068   -8.58285609315322   -9.70981589294825
C          -1.70822235978905   -6.94003792953031   -9.59931198193233
F          -2.73806072019511   -6.52617437670164  -10.33436896795231
C          -0.94441037544367   -6.14233459340696   -8.78554803663311
C          -1.17640441940761   -4.72508858020708   -8.69053625000266
C          -0.23897673174781   -3.81583694797709   -8.33287070264322
C          -0.52635450673317   -2.45973878743217   -8.06263438653956
C           0.31201954249121   -1.52371973064410   -7.52562424327874
C          -0.31171691372874   -0.33544480559375   -6.87831305042910
O          -1.47208147242006    0.00526116672297   -6.96217706466616
C           0.75808391783324    0.28932603008869   -6.08186830629644
C           0.67970419943441    1.36158997939303   -5.24080551892513
C           1.85886395681761    1.84735529171729   -4.63156392187334
C           3.10220098966605    1.22117542372592   -4.93406858770096
C           4.28614642152909    1.76484298012443   -4.39766627118988
C           4.21192704113023    2.86265034792213   -3.58632997925356
C           2.99452207200591    3.46212195064535   -3.23755482838654
C           1.83598070147127    2.95634453596671   -3.76088286057568
F           5.34736342036412    3.39215810982535   -3.08155495980275
C           3.14228979343581    0.08117015925094   -5.76928714301855
C           1.98400928617002   -0.39153663792976   -6.32997949968491
C           1.73440896623888   -1.49535393867866   -7.25697981517662
C           2.72112310983056   -2.25723627809639   -7.83061963188238
C           2.58067858378414   -3.12544889031549   -8.93239884575797
N           2.59035835797151   -3.80223043745004   -9.86018908066679
C           4.07064804339202   -2.22176212707598   -7.42626215480242
N           5.17452551328884   -2.28712544911268   -7.11377072603356
H           2.94047245495144    5.33192992814848    6.88790362009868
H          -0.80441010642396    7.33110187731698    6.46136706643455
H          -1.07285873969257    6.38752961405187    4.18183200408781
H           3.81390297600229    3.94347632196753    5.07470255497388
H          -0.21744572298101    4.98831755674712    2.33144451984553
H           2.88057464506701    2.11030698248162   -0.87098917196835
H           3.46562411082067    0.11191157190758   -1.69771636223903
H           5.91728386729417   -1.16361767766840   -3.00830488729023
H           5.40886571490747   -3.02261577325925   -4.48921123100115
H           3.66967591670115   -5.30516313701037   -6.10847557545799
H           0.19542157975831   -3.66306996506976   -4.36394250684067
H           1.94165171834792   -1.36830605282647   -2.73675705349078
H          -0.31288582152572   -5.27239979783784   -6.10669809196443
H           2.06969737957409   -6.79493405684546   -7.27537331168237
H          -2.16982540127043   -4.39177668770228   -8.97108669149413
H           0.76539158120347   -4.15784985523472   -8.15088798344001
H          -1.56284782515663   -2.14393969821534   -8.14503496684495
H          -0.27177561693403    1.84728404307303   -5.05420730291895
H           5.24033148006812    1.32700452163283   -4.63771571254798
H           2.99453899312999    4.31372190958461   -2.57578721805673
H           0.88751863691875    3.40743243533585   -3.51249010910865
H           4.09755792600541   -0.37753972033321   -5.95632843725488
