170
 SCF done       -257.408897899393          0.000951094814
C          11.48420565384246   15.96184626503116    6.88436338174565
C          12.06532399982488   17.19160402809991    7.02081405540581
F          13.39642783150277   17.27883037185447    7.19915732435295
C          11.32591019114244   18.38149462182100    6.98300044737244
C           9.97198320373997   18.31276977859721    6.80321785833915
C           9.32048642753249   17.07150103183798    6.65856159839441
C          10.09038308146500   15.87181504836614    6.69849598320473
C           9.46085662584079   14.61516774864861    6.55506717596129
C           8.10141032759291   14.55724065708672    6.37923512742936
C           7.33833217084071   15.76074227884554    6.34709050687997
C           7.92162916035226   16.98767746562815    6.47936130111287
C           5.91236665646140   15.43554129209952    6.16730851895133
O           4.98853376075449   16.21575424239808    6.07943068097636
C           5.84070312592600   13.95036546233523    6.17575233269317
C           7.20155559667364   13.42920700201316    6.20987787837427
C           7.56871364642019   12.11880015025443    6.03171942462732
C           6.67232550533503   11.06352511764751    5.77670068007430
N           5.99849253139326   10.16109220555212    5.54505551223846
C           8.90301986842521   11.66452822820875    6.04519389061535
N           9.96798839622598   11.23537670069921    6.05058094669712
C           4.70318408376833   13.23587608716692    6.29658376322397
C           3.32609613783798   13.78801763312753    6.21933648439945
C           2.27044189178174   12.81069135081952    6.76492040068453
C           1.58618886890352   12.02208083504157    5.64532516008768
C           2.60767981322013   11.68354970780269    4.54003318085861
C           2.95454410790386   12.98741006585081    3.81071249758444
C           2.97030840875840   14.18305523263014    4.77119398218785
N           2.24775381723526   10.59131368732466    3.66861876052053
C           1.31763750909516   10.77122698234253    2.57715383349043
C          -0.13604416084738   11.08277287035062    2.95687850975166
C           2.21246454741309    9.28608509131022    4.31394009870857
C           2.13253541232891    9.34754724684484    5.83879873657127
S           0.80067441141830   10.50603207217350    6.31394194081063
C           1.90801179396719    7.95984171891466    6.41375537203586
C           3.10861109921502    7.08724845374538    6.05354102683467
C           3.30037257955199    7.03482749134373    4.54116952957306
C           3.45797738139102    8.43940696318742    3.94404267717533
C           3.64054484207489    8.38032819991467    2.45281856646483
C           2.70510160816940    7.78594953207618    1.65485890514204
C           2.88446142401394    7.74924373751697    0.25347973068635
C           2.08984880473305    7.22864333008488   -0.75345670777424
C           0.76762739712398    6.53647631974086   -0.65864145018594
C           0.94864744542491    5.12996647730474   -0.05944860259642
N          -0.22511739982825    4.31205973677367   -0.32528921884871
C          -0.30385938265494    7.38128764845048    0.07482018708996
N          -0.30007793529874    7.21291051526885    1.52160212047008
C           2.80162748336890    7.43846002076937   -1.99398544786026
C           2.51098192536885    7.08139905252723   -3.25736667579508
C           3.43487737620548    7.37429706157276   -4.39008324336985
C           4.67461143349851    8.11305597968127   -4.00367845135418
C           4.95037256681198    8.46792822827748   -2.73363031053871
C           4.05667845786228    8.14070433916332   -1.68861730599548
C           4.09105272282477    8.32938621052926   -0.31871043556275
C           5.03426787938598    8.94319424803990    0.53470627448523
C           4.80373708552519    8.96748471826478    1.87548005053782
C           2.66677095871414    8.12911140898927   -5.45390198764279
C           2.14866639654067    7.56639742312147   -6.53189333922579
C           1.33453537031032    8.28682204365908   -7.56355335052914
C          -0.16022653246247    8.04437872135567   -7.28771800019226
C          -0.99317574334557    8.70408319210899   -8.37545270281687
C          -0.63443080214886    8.08184902357648   -9.73178778894539
C           0.81733177078867    8.45670741123511  -10.03628071539409
C           1.70953223224176    7.81705161252556   -8.97450548502803
N          -1.57490136066085    8.38616237263962  -10.78738742757039
C          -1.70348675193040    9.78828755133498  -11.15474190405823
C          -1.93734434661454    9.96592464289993  -12.65135761070079
C          -2.83528485888583    7.68942297616158  -10.65355749962616
C          -3.17069378853024    7.23787636703072   -9.22708218901238
S          -2.79848095647444    8.59116015393908   -8.05643573787991
C          -4.62743402684026    6.81394596769236   -9.14112934030109
C          -4.84894925972642    5.61300297428313  -10.05877831819447
C          -4.40653715661078    5.92151053123469  -11.48659282274703
C          -2.94920555606515    6.38742666774875  -11.53210403907033
C          -2.50032729617698    6.67661947320780  -12.90278730584696
C          -1.20696728250269    6.62805240282469  -13.29448387881319
C          -0.09500455663549    6.08549775330597  -12.47554435756048
O          -0.14933963831989    5.57456211456743  -11.37394142281587
C           1.11595808427319    6.21758393517642  -13.30545015500268
C           2.40072522834954    5.87631796248775  -12.99456061442460
C           3.41741492204099    6.06461751404248  -13.95656508376585
C           3.07539299223257    6.60232911154546  -15.23155143253078
C           4.09013909309808    6.77719741120963  -16.19320836418026
C           5.37528225062235    6.42931073524956  -15.88356709142961
C           5.73153474865910    5.90171055747956  -14.63492278548626
C           4.75941742222503    5.72602640695815  -13.68965033758273
F           6.34589641164423    6.59370136823593  -16.80119680040836
C           1.73699167762096    6.95127101461970  -15.52331655936751
C           0.76700797791095    6.76490328545834  -14.57217575252774
C          -0.66551762583843    7.03208600319671  -14.58678821990764
C          -1.35670033683909    7.59580240311953  -15.62693532863153
C          -2.73516947977814    7.89397312889580  -15.63186660494134
N          -3.84493472598450    8.17938840427416  -15.71492033255364
C          -0.77239721835090    7.97192577892461  -16.85468993396174
N          -0.35908173536041    8.29802403412747  -17.87524941614081
H          12.08545407874033   15.06673023386053    6.91717186135655
H          11.83932606369878   19.32298819408800    7.09686622193937
H           9.38064914150178   19.21551533781627    6.77140370092855
H          10.06814388754457   13.72505574972548    6.59577821047775
H           7.32178258808485   17.88509829002201    6.44968281569198
H           4.79282321379205   12.17583077976770    6.49031301871954
H           3.31017760877237   14.71907144125221    6.79931241887858
H           1.51028875444834   13.35633154741955    7.32632465428081
H           2.73931387691942   12.11069290777618    7.46091163054343
H           0.75814844101132   12.59718184323236    5.22897464334640
H           3.52670978225152   11.34820239040508    5.03273324676389
H           2.22321659552479   13.19245102658127    3.03038309752397
H           3.92611714425336   12.86202271102531    3.33004907315601
H           1.98300693247559   14.64661885369474    4.80296147018497
H           3.67149640825382   14.93861996099422    4.41922467894454
H           1.70100498783398   11.55746369686397    1.92170175258602
H           1.34278348513367    9.84431305149644    2.00008540954703
H          -0.24403943935585   12.10299200266491    3.31620461216596
H          -0.48148543671078   10.40809599571367    3.73691905693455
H          -0.77348683975733   10.96446933621002    2.08328258010278
H           1.32198238763781    8.75439764528135    3.95981772107835
H           3.05544204989944    9.74800330430625    6.26556741089566
H           0.99087357310533    7.53231122308698    6.00271437953619
H           1.79198206338135    8.02291106618153    7.49767538569839
H           4.00599686696271    7.50103500454920    6.51841326949407
H           2.96246664601233    6.07839494869846    6.44434296862351
H           2.43850068652471    6.54268493709294    4.08617419802479
H           4.18677382731756    6.44421586014038    4.30109109705215
H           4.33467013826885    8.91685484813715    4.38862303977251
H           1.80446024893247    7.35486037570496    2.06227953140410
H           0.39449311530089    6.39042333327136   -1.67687631150886
H           1.20248772779679    5.21996392417187    1.00646730823190
H           1.79544433640078    4.65447191521619   -0.56321744139640
H          -1.03059471298130    4.66367241048707    0.18108539514317
H          -0.06558503614464    3.35702949127762   -0.02464138618084
H          -1.28515531263680    7.14076889583767   -0.36501819673980
H          -0.09846931552467    8.43460164732236   -0.13447809023516
H          -0.72636547311035    6.32973283068475    1.78109834969687
H          -0.84123619716368    7.95174712168975    1.95628756033734
H           1.59706272818941    6.56320107487197   -3.51527420789806
H           3.72586966486054    6.40710459734539   -4.82833532560737
H           5.34859936012511    8.35361311464099   -4.81227562806913
H           5.86186387492173    8.99791418312153   -2.49635488341804
H           5.92683241114645    9.38444559684343    0.11470043972015
H           5.51651429951693    9.43518802946494    2.53966235959200
H           2.53966611118839    9.18506721265270   -5.26030044670213
H           2.27117751451048    6.50390986235089   -6.70141795066046
H           1.52156357752020    9.36335380108230   -7.48447444454283
H          -0.42253770885380    8.45285082312141   -6.30981936654850
H          -0.36370001945532    6.97100935726356   -7.27043863998757
H          -0.79324985652738    9.77922073445334   -8.39132730321742
H          -0.64412310562446    6.99057560912102   -9.63897773354640
H           0.96019507282734    9.53873493297913  -10.02438159056868
H           1.08559735370533    8.08921764411885  -11.02770877438546
H           2.75485567789262    8.06665692105959   -9.16942156524209
H           1.60515813803659    6.73154836886272   -9.03561030180034
H          -2.51910026076128   10.27343761913452  -10.59712174196434
H          -0.77630126225073   10.29665843525765  -10.89265008922115
H          -2.85483358864073    9.47953874739342  -12.97151177726782
H          -1.10739600819495    9.54182540973063  -13.21077942156687
H          -2.01077529004725   11.02475558330530  -12.88646561663501
H          -3.62606170992243    8.36840261019513  -10.99031650641111
H          -2.54074770706117    6.39728728990116   -8.92593992491097
H          -5.27003528802673    7.64474703628877   -9.43966692756883
H          -4.87526351712175    6.55447187798904   -8.11029623436809
H          -4.27696489450323    4.76268855912251   -9.68008812191920
H          -5.90392030430089    5.33490569360431  -10.05222493294353
H          -5.04766526437623    6.69838928166170  -11.91051388177543
H          -4.51728778767686    5.02632945214229  -12.10216951493131
H          -2.29546226400495    5.63635495949728  -11.08299678990484
H          -3.26007447155738    7.01107887984214  -13.59530985553521
H           2.63865709553325    5.46448689065026  -12.02494541275357
H           3.85211425575366    7.18088994253318  -17.16492033507170
H           6.76232889778703    5.64556710305164  -14.44803815205663
H           5.00911289352661    5.32008001111395  -12.72077092967659
H           1.51237679013507    7.35408623712351  -16.49760534443998
