90
 SCF done       -181.954709724645          0.000842263941
C           6.60262792872672   -6.01866632481591    4.83401011898556
C           5.68111108941265   -6.60687879200774    5.65502801618625
F           6.09685558358174   -7.43213781517853    6.63167677745883
C           4.30378593260731   -6.38341604244691    5.52069364725478
C           3.86214245009258   -5.54657764387280    4.53378682432798
C           4.76844991764135   -4.91301285738401    3.65897546911057
C           6.16521188937032   -5.15578315975751    3.81025760157476
C           7.09262607000204   -4.54368549787084    2.93539132017716
C           6.63605148508415   -3.71493000969560    1.94595438880064
C           5.23978071331529   -3.46248852668346    1.81009124053093
C           4.32304464138257   -4.04506666444729    2.63673736220882
C           5.01476264519545   -2.52346220029803    0.69191030961529
O           3.96134073550732   -2.11953586148472    0.26300025002576
C           6.38100893708654   -2.12869271392143    0.23939416305904
C           7.33539741636183   -3.01188092445578    0.87488896624781
C           8.58781510525336   -3.32361498514759    0.41033978327555
C           9.08857797050153   -2.88572048364356   -0.83358320336460
N           9.51273996613541   -2.59647545677485   -1.86031032127477
C           9.49742553004508   -4.15343793236840    1.09287443405905
N          10.30533636298801   -4.75950949169428    1.63984778398240
C           6.55214814887973   -1.01353712946312   -0.52304059954398
C           7.74597176022877   -0.28158414642591   -0.72247627531694
O           8.83178980767361   -0.47217728829412    0.06543070169275
C           9.82089025150382    0.33578175798342   -0.37479289844391
C           9.37843089480751    1.07109148326878   -1.46040145470910
C           8.04252275965657    0.69142466016454   -1.68148545583465
C           7.10202501559819    1.20338473068296   -2.70386000080178
O           5.91116219675009    1.09017116286158   -2.61932385596536
O           7.66840359726331    1.82990686377204   -3.74557368012556
C          11.08567359854936    0.28843442741385    0.26848392653526
N          11.29771445150150   -0.51098625904661    1.37041428024549
C          12.59744569982647   -0.38353844095345    1.74260301751552
C          13.54683323662958   -0.80699003083708    2.66099016434005
C          14.73814430675094   -0.15071703851269    2.30694307647551
N          14.51474699147957    0.65836083247486    1.20996454329427
C          13.22001137808630    0.52781636596334    0.84264846738556
C          12.26530226694949    0.95278240889691   -0.07762238783985
C          16.02575824631711   -0.21896977990755    2.87691908753750
C          16.44038667135936   -1.01026859736878    3.90394893927503
C          17.80004222879070   -1.01997633323549    4.30859344621135
O          18.65440523724938   -0.15759049968128    3.72725911424117
C          19.90084220500578   -0.37351100306970    4.22598772677673
C          19.83242600861114   -1.36549288886603    5.19590330941776
C          18.50204663470667   -1.80228838126412    5.23984142982545
C          17.98774454723656   -2.87292253745085    6.12280752561641
O          18.38753903782355   -3.04987708647610    7.23780127695645
O          17.02788961770460   -3.65512427414462    5.59231930272669
C          21.00854685659937    0.36858474619680    3.76861387527669
C          21.05639636831455    1.29530238293605    2.76438963476511
C          22.16911243646783    2.28364641327856    2.73288773989381
O          23.22077316603845    2.21341338332816    3.32489036151173
C          21.67980152833853    3.38595759602452    1.87825581818606
C          22.27802962607770    4.57552730588225    1.58055148111993
C          21.61014212010248    5.49254624312607    0.73688208678376
C          20.32488655703104    5.15850282163237    0.21834757371835
C          19.66517519704711    6.07865858220097   -0.61900708015118
C          20.27134973862947    7.26655686514287   -0.92058782006175
C          21.53567917289506    7.61173620038453   -0.42468745777899
C          22.18876052225381    6.73102402053801    0.39252882202425
F          19.64204510083865    8.14426679646213   -1.72207924203546
C          19.73280495202052    3.91388282060019    0.53545380467961
C          20.40134713139180    3.04143001348147    1.35058555098859
C          20.08158900448005    1.68332632990651    1.77515349048008
C          19.15459035096985    0.86698868178861    1.17105866668201
C          19.18001215720828   -0.53965718005113    1.28263187429293
N          19.20481593848238   -1.68720965437370    1.28482725112729
C          18.06867310816583    1.32215004644584    0.41127411413269
N          17.07456493055361    1.62043833511182   -0.08850306521356
H           7.65506057580752   -6.21730531709486    4.96414412674565
H           3.62395103094569   -6.87617042001455    6.19739097071429
H           2.80615099119903   -5.35934547357061    4.41035464909030
H           8.14377881026420   -4.74331269776732    3.07369257312982
H           3.26898316159325   -3.84937356448866    2.50932646227953
H           5.66908655061722   -0.58871238467964   -0.98660922667302
H           9.95961588672954    1.80131610003927   -1.98670902092209
H           8.63370042434639    1.79858469329356   -3.72177238653528
H          10.60079317705587   -1.10282173531391    1.78826126294098
H          13.42306506289092   -1.48913400208982    3.47673838945287
H          15.24156206159751    1.16410975121587    0.71659948892365
H          12.38772094189217    1.63255883045063   -0.89484484846426
H          16.76345364073846    0.42164101685518    2.41508307197731
H          15.75013777936872   -1.65657424519124    4.42235968207662
H          20.64341165639359   -1.75064000934076    5.77920160187753
H          16.88370069805248   -3.48944275526337    4.65111087056424
H          21.91717381306855    0.25085350976292    4.34663913399201
H          23.25315123076983    4.81339061955034    1.97809516730413
H          18.69192334979148    5.84566864593465   -1.02211903571129
H          21.96523261883530    8.56237031967135   -0.69791626665537
H          23.16360358259484    6.97488503448368    0.78688754026755
H          18.75986782757376    3.68300174266962    0.12914065298412
