156
 SCF done       -257.343644279630          0.000696715175
C          25.63660303855166   11.93026986339624   -4.47874034612965
C          26.83467267451688   12.33256275014959   -3.95745533777399
F          27.87998944952307   12.53577816538276   -4.77980924198952
C          27.02403355051134   12.54613997950650   -2.58520655022419
C          25.97389319611347   12.34395367109241   -1.73356546159308
C          24.71660708174681   11.92717300930075   -2.21666627419507
C          24.54412605390483   11.71560766098517   -3.61589275062791
C          23.29403010658506   11.29288573203973   -4.12428555266257
C          22.25135275787471   11.08967141120091   -3.26044449957438
C          22.42715783119518   11.31483406536007   -1.86383108024173
C          23.62407944394464   11.71792012070587   -1.34598024382805
C          21.15111329391448   11.06804076665553   -1.16809011962297
O          20.93061348939261   11.08999000231312    0.02266687493627
C          20.15893135178189   10.81917669344113   -2.24770643394094
C          20.88200215803787   10.63919329734083   -3.49185663946832
C          20.44113534036793    9.97568513901770   -4.60619937541554
C          21.22661410317087    9.77227311332327   -5.75863216134545
N          21.81965970933510    9.59957460264154   -6.72630057585480
C          19.18577338792204    9.34014706345937   -4.70009406332381
N          18.20273350352693    8.75820363117816   -4.81407640764674
C          18.83432812649213   10.87987354766985   -1.96238870696945
C          17.75290510544859   11.03511696120710   -2.89623700691301
C          17.88022624621906   11.88666995790180   -3.95793004522830
S          16.47135183759735   12.06140990029626   -4.90821422429494
C          15.63888639035513   10.89570782951399   -3.91134521441060
C          16.43745053375285   10.43392397588660   -2.84045841333902
C          15.94762246675808    9.44844166706608   -1.97594654932226
C          16.82094159912848    8.90554946094988   -0.88339270862821
C          16.70016476632382    9.71733286556351    0.41044857964000
C          14.64396641059878    8.97715222252291   -2.18854304536587
C          13.89730020232692    9.46822476372897   -3.28785382611697
C          14.36149431271410   10.43267088180277   -4.16752440718103
C          13.57643591659832   10.87569796725633   -5.36244865047676
C          13.88491494275608    9.98059658074743   -6.56402757917165
S          12.35042726190187    8.68577226507658   -3.44540462212908
C          12.68940712247332    7.72025631652010   -2.06349049033218
C          13.89425221330193    7.95978031436819   -1.48068474256159
C          14.28458628375860    7.27589885499520   -0.26205559963850
C          14.00997641627255    5.99494029704398    0.01844958779136
C          14.39299977012815    5.33404147378576    1.25219977705436
C          15.45571681539109    5.76130770510072    2.00737111107171
C          15.79643391349513    5.09367050591913    3.20230104003917
C          16.82137965654658    5.31475480663011    4.10807385494734
C          17.82646197963615    6.41395015711473    4.05366119450997
C          17.65024353969524    7.38040242499978    5.25676501315699
N          18.36954351698049    8.62753729615220    5.15451607220391
C          19.26572152798991    5.87712582024989    3.96700207434960
N          20.18626703308760    6.94633428833254    3.60368044377311
C          16.67231316579436    4.32662874242716    5.15289956541283
C          17.37971904437372    4.08434766512368    6.27080240132907
C          16.98289342437212    3.03366856040742    7.24472828537883
C          15.81695283412953    2.19520991940534    6.81610186791810
C          15.12901453899031    2.43390532991223    5.68501907796090
C          15.50527229565711    3.49258997918774    4.82551086002151
C          14.99115100940281    3.95884797265754    3.63257102786224
C          13.91036446897068    3.53078380783157    2.82625337494474
C          13.63753560547649    4.18990331194883    1.67231588565764
C          16.64986910147975    3.64966664325972    8.58866183344754
C          16.31080637724762    4.92181211842103    8.75910091263827
C          16.02050147204056    5.50525126357529   10.06790948774475
C          16.71891561286974    6.59072591583557   10.48677975373666
S          16.43628782235437    7.03189625585915   12.12665484746125
C          15.30994200446424    5.71433686090751   12.29685158883250
C          15.14100461032013    4.99136786009230   11.09064625208400
C          14.16444207205532    3.98361797381144   11.01583207311288
C          13.63434259489200    3.48829664416715    9.69908770580063
C          13.09124766177891    4.64621863955561    8.85960855858126
C          13.56711174921766    3.58838720260489   12.21848797383148
C          13.77072356318634    4.34590821518227   13.39550751318997
C          14.60347620079950    5.44817668843129   13.45997286557408
C          14.76646085634217    6.26484339811208   14.70385424113095
C          15.90718765656295    5.71842541142818   15.56416729249472
S          12.78166253338741    3.77947029503748   14.72006651842623
C          12.13907688159149    2.53638904866575   13.73204374344328
C          12.64258418956782    2.50161493689173   12.46321464246207
C          12.36285406214302    1.40215691734538   11.57795676413505
C          11.15977580905982    0.78826950046537   11.49445222309741
C          10.91979519637753   -0.33371925325405   10.66563420399212
C           9.70264457596000   -0.84948395590887   10.33113448529733
C           9.58016275249900   -2.24236954969931    9.83097594738930
O          10.47560758761324   -2.95461851600468    9.43467011550173
C           8.15000853542715   -2.58111890762033    9.98112188460422
C           7.52321893264990   -3.77488163515560    9.77098418787246
C           6.13397350160660   -3.87673563472643   10.00991752824343
C           5.41891714030577   -2.73247150455179   10.46901463307851
C           4.03620512331196   -2.84314964683399   10.71272059620288
C           3.41115475548655   -4.04047786402280   10.50139053401631
C           4.09575150030751   -5.17608511721436   10.04822483579368
C           5.43877521857581   -5.08640227593420    9.80800001522305
F           2.08972065637160   -4.14794759545385   10.73335210320474
C           6.09273476703325   -1.50499628336202   10.67024246582282
C           7.43678318207014   -1.42933551735400   10.42472759826739
C           8.37301776242928   -0.31124146980598   10.50393867168117
C           8.03098267638202    1.01815309646798   10.50427271015781
C           8.94779825213643    2.05907833497872   10.24913484044248
N           9.64791285168645    2.92969968358274    9.98401549638798
C           6.70849994492129    1.48525626048940   10.63867303139997
N           5.65135115777738    1.91232999919634   10.77448999368687
H          25.52766211942151   11.77327184688726   -5.54051085911489
H          27.99197496060865   12.86466771936990   -2.23197945749868
H          26.09482785168627   12.50231484263990   -0.67241198372134
H          23.18898857739470   11.14949763044408   -5.18808863320914
H          23.73578263076729   11.87795312255798   -0.28396524111892
H          18.60253769758068   10.94720430378422   -0.90679397526341
H          18.74194151687408   12.48326989176835   -4.19365519698422
H          17.85838623926943    8.92218662877097   -1.22799559569266
H          16.55956283651567    7.86302771879446   -0.69635520697258
H          15.70165403306413    9.63758810957061    0.83475682330367
H          16.88127723506782   10.77433653308198    0.22921710047258
H          17.42049958809716    9.36500391838637    1.14626090954615
H          13.83478745160652   11.90953102219082   -5.60323764767365
H          12.50915884015678   10.82579585849216   -5.13616797806654
H          14.94701487818891   10.01121923054716   -6.79560025714216
H          13.32775811123911   10.31537913434297   -7.43501412895067
H          13.60853351273032    8.95148082768918   -6.34808717344025
H          11.93932105690168    7.03348687995466   -1.72226988661199
H          14.77887572772012    7.87461400880671    0.48537281151593
H          13.46997999012162    5.39144136235368   -0.69983049504375
H          16.05812539410995    6.59506899437578    1.67877429056907
H          17.64308116798614    6.99586315776266    3.14186327043922
H          17.98737749934703    6.88213696389968    6.16911442132598
H          16.58464919477165    7.60563255400635    5.36790358564336
H          19.35018806664032    8.43284884132162    4.96839672220091
H          18.01869683593871    9.17666569346997    4.37643823807993
H          19.28079051836918    5.03484037621615    3.25418470162729
H          19.58149498078988    5.49412894989367    4.94002419073582
H          21.14312373944426    6.61054781027550    3.61883413651557
H          19.99235530021208    7.27358698084373    2.66196387260164
H          18.25425798204782    4.66041719104560    6.53774951313514
H          17.84886080664685    2.37255691418215    7.40585314513858
H          15.54209810874338    1.38813054410499    7.47898852444321
H          14.28383374277239    1.81667262944617    5.41594554652324
H          13.32028323582454    2.67966220458108    3.13350126540150
H          12.81905527191029    3.86987671773027    1.04308107285005
H          16.67211502737137    2.97063411064424    9.43066233275835
H          16.33270848627742    5.61044128999755    7.92407430882790
H          17.43887320175454    7.14905037974062    9.91948113086401
H          12.80045633812315    2.81162357834887    9.88005495503149
H          14.39622825871947    2.95860140496245    9.12640144150066
H          12.31552697835813    5.17266222508856    9.41019469997252
H          12.65731246893976    4.25513341647420    7.94279434038050
H          13.87314347617443    5.35169958752527    8.59512805115758
H          13.83700852872861    6.24149943315101   15.27706363796655
H          14.98391514546033    7.29967009300260   14.43082317090311
H          15.70253620009195    4.69077813870763   15.85593362991586
H          16.01992732832677    6.31853664841638   16.46308835032820
H          16.84286793879709    5.74358198689369   15.01049900723263
H          11.46883495348461    1.82411308165930   14.17380126985801
H          13.17990585357180    1.04764218653664   10.96333165300855
H          10.33295126000401    1.17854725435865   12.07146433986581
H          11.78109727428171   -0.89228465889657   10.31518357632102
H           8.07991716696039   -4.63345632383254    9.42624105782233
H           3.47650375190905   -1.98821512522825   11.05874038866751
H           3.54952706675207   -6.09397476081312    9.89923315534052
H           5.98792768372653   -5.94778155570958    9.45848006985334
H           5.52887618199634   -0.65595107866207   11.02335331307367
