124
 SCF done       -241.819774344426          0.000834997934
C          13.38649241475383   -4.57968524264706  -13.82634819520835
C          13.83393289923462   -4.47551576294286  -15.11396116357692
F          13.73359613392675   -5.53385688347378  -15.93775557763201
C          14.40067035766341   -3.29743922850008  -15.61988544803557
C          14.51211769564807   -2.21076499179228  -14.79801653685188
C          14.06736721471561   -2.26251499206708  -13.46082555102859
C          13.49113483538040   -3.46926282395388  -12.96631260238613
C          13.02739471641608   -3.54275052430423  -11.63226571733503
C          13.13923391973603   -2.44529145814184  -10.82231515454328
C          13.73621657822448   -1.24870406579035  -11.31494269432695
C          14.18542832110001   -1.14832540739983  -12.60050415270108
C          13.78184560796427   -0.24630569109508  -10.23525882785659
O          14.16629130656215    0.89850940356383  -10.29217194768473
C          13.30294997049670   -0.96263379778244   -9.01650307327039
C          12.72293476967863   -2.22251632844045   -9.44023069110303
C          11.75575543934577   -2.94015579241694   -8.78773643565053
C          11.19512089164461   -2.55896898128275   -7.55240738536941
N          10.68289092103335   -2.26317470356541   -6.56870195673122
C          11.13713281437350   -4.08822292432371   -9.32596107777402
N          10.60187993616183   -5.01862598505367   -9.73122742616665
C          13.53864445424006   -0.41850536222099   -7.79418989070993
C          13.51553551088930   -1.06654018717577   -6.53263384949404
S          13.28795548955161   -0.14483488995713   -5.06503850110696
C          13.39233287455523   -1.56194967381119   -4.08007362630796
C          13.63714575767659   -2.70633306575692   -4.87558375267711
C          13.70179477582113   -2.39588264450713   -6.24877898417825
C          13.73834516899296   -4.03540731880011   -4.33832667119482
O          13.64400835936695   -4.38361351409192   -3.17921643984223
C          13.99029855278386   -5.14871133039458   -5.39791033226597
F          13.02148283659416   -5.21148336463761   -6.32943756152388
F          15.14594782750589   -4.96273605812075   -6.06577795216791
F          14.06213773459344   -6.34841799877061   -4.82809470044585
C          13.23002093543973   -1.52829132232297   -2.68272507834810
C          12.88337322970463   -0.41906223363999   -1.97635121445691
C          12.65380286852911   -0.39053607009717   -0.56465675818924
C          13.00263840488945   -1.45314053298910    0.24883242018484
C          12.66270879123015   -1.43435489647141    1.60922313355347
C          12.83270945331316   -2.40354153427387    2.59195228568893
C          13.51514205449205   -3.72507107650694    2.49383055846046
C          13.09627604851870   -4.56051552951017    1.25494647911409
N          13.91212524115930   -4.28090442291813    0.08943339463857
C          15.04264690356709   -3.50765600417842    2.53901306381478
N          15.73961582197894   -4.77560049131962    2.40280509019025
C          12.23852792582180   -1.86977237088848    3.79798349584453
C          12.08323223879226   -2.40676447012171    5.02138506456420
C          11.39440889427835   -1.66478523922151    6.11954408975396
C          10.96784967928687   -0.27874313330040    5.76065624625791
C          11.10970546173763    0.23511801437084    4.52531413184638
C          11.72599031202360   -0.52327436956606    3.50085286130270
C          11.98046322725605   -0.27431559848869    2.16834236630443
C          11.69623500731055    0.82833756387926    1.32614912820542
C          12.02260476209473    0.76577444449710    0.01122586257422
C          12.26013259071220   -1.72929614234253    7.35230155632125
C          13.02412942844631   -0.71936741992429    7.77354758428508
C          13.86380820844766   -0.76726403351129    8.93851443207535
S          14.96304770268558    0.54241744914000    9.25761985879316
C          15.55196956166990   -0.21239291284320   10.69918060150566
C          14.89834808297804   -1.44196462125046   10.91581790849361
C          13.95212253349919   -1.73121644130744    9.90809649177219
C          15.18206210400025   -2.28926519806183   12.04983619497966
O          15.95308200506134   -2.07298680441093   12.95663837718186
C          14.38428660044823   -3.62805870612212   12.08239760695496
F          14.59816042180482   -4.37839903130359   10.98542057678612
F          14.72018033517532   -4.36803705297427   13.13307546788538
F          13.05485724390259   -3.42534923122955   12.15013709184221
C          16.57821665701186    0.36489657549400   11.47650845813770
C          17.17504138540647    1.55303813839353   11.18471673631089
C          18.24147543853158    2.07128908010358   11.94918011283943
C          19.02852717420700    3.14456445127256   11.64984132534260
C          19.84830086231549    3.77920660493395   12.72075605332028
O          20.09676549153302    3.31532676908932   13.80908081259757
C          20.23067470688519    5.09858562306330   12.18425858838392
C          20.89362328267987    6.11758223100966   12.80505651792110
C          21.12821893403918    7.31867174972943   12.09918894396048
C          20.65925506888983    7.44264300537796   10.75875232986082
C          20.88738937527616    8.64596040673913   10.06356088892794
C          21.55539041690155    9.66403145570594   10.68546891633471
C          22.02714331193816    9.56035997804950   12.00121187678378
C          21.81217018511584    8.40002068391380   12.69149948331396
F          21.77471575895213   10.81345701082227   10.02270985733817
C          19.98080033558350    6.36753673372458   10.13841988608654
C          19.77745850189039    5.20844159049094   10.83742882451545
C          19.15878390124217    3.94182365360779   10.45068971043923
C          18.95416258234392    3.52871738352150    9.15876968347966
C          18.62624522766350    2.21214144961198    8.77302305438252
N          18.40530524765359    1.15507774756875    8.38276370898142
C          19.15044668974024    4.35555182106769    8.03280447562369
N          19.27203682738065    4.98558386979226    7.08074639661939
H          12.95198567671873   -5.50112889234031  -13.47153917580832
H          14.73608093574573   -3.27452472941154  -16.64459616713092
H          14.94557462113647   -1.29259345249289  -15.16492624994967
H          12.60473283047829   -4.47033232987576  -11.28014615448975
H          14.62696369695847   -0.22977529571758  -12.95683925701699
H          13.83996078244182    0.62419435936954   -7.79824701036661
H          13.91870898936433   -3.10836597047736   -7.02329709341365
H          13.36257385530966   -2.47386239317053   -2.17947661604691
H          12.70997136138517    0.50472062897685   -2.51744404828736
H          13.51816716781914   -2.32336699367490   -0.13240718729850
H          13.24018330080736   -4.31244151791131    3.37700874379030
H          12.05555372796172   -4.32514544511413    1.01359751628756
H          13.14419719733838   -5.62012285085645    1.54805258295963
H          13.53487697793231   -4.73517261485979   -0.73536003426641
H          14.84862433225457   -4.63852051075082    0.24671249611747
H          15.28270499307990   -2.97232433038816    3.47390221833208
H          15.33252067037745   -2.86961532620023    1.70206881830098
H          15.54791353924580   -5.37438530485805    3.19970159201074
H          16.74142902315594   -4.62352053637102    2.36591649010336
H          12.44254499103339   -3.39735950350739    5.26529667951389
H          10.48111370806796   -2.23847535167448    6.35433885582683
H          10.50461853593397    0.28807440632867    6.55394467689486
H          10.76139229889304    1.23241949449388    4.29999826740013
H          11.21303211142253    1.70212888136013    1.73788566000960
H          11.79742984330578    1.59495729229192   -0.64391150844923
H          12.26094147390238   -2.67523772998748    7.87396730320657
H          13.04168400118641    0.20838993893554    7.21763906136943
H          13.34080086864837   -2.61305172757414    9.89207816623355
H          16.91900566164492   -0.21287991957072   12.32471615061408
H          16.81354706699226    2.12627027182000   10.34113451642444
H          18.43265695114460    1.60896285085387   12.91195856133735
H          21.23552053237637    6.00860627335837   13.82332013729488
H          20.54194902340399    8.75959800345835    9.04790236678847
H          22.54829573106000   10.39664682282767   12.43941916413143
H          22.16591110384289    8.29639672003055   13.70616530239515
H          19.63118488774624    6.49315977987069    9.12601204198493
