116
 SCF done       -203.031796070763          0.000769428254
C          11.08025000538763   -5.29030289541506  -13.46051927315206
C          10.45780205708294   -5.22535585672084  -14.67591273000180
F          10.11520457275608   -6.36563974988871  -15.30710766377026
C          10.15545788388967   -4.00912948332248  -15.30130990516148
C          10.49542305267890   -2.84195790204083  -14.67484080403686
C          11.13821210056109   -2.85040404054564  -13.42069299769917
C          11.43765057383851   -4.09813018653980  -12.80184203021339
C          12.08765732912678   -4.13241293159034  -11.54489402485134
C          12.41854495748683   -2.95715240359644  -10.92918718258250
C          12.10488951281298   -1.71270344022769  -11.54668337288455
C          11.48815095899862   -1.64940694116065  -12.76133376933558
C          12.53043650143169   -0.61313082057401  -10.65606391972839
O          12.46525187531833    0.57996825457871  -10.86872764824590
C          13.00608157462694   -1.27104810335506   -9.41797938219663
C          13.10276042230540   -2.68318411417525   -9.66540493793319
C          13.89894442254863   -3.58204427658653   -8.99363803757883
C          14.77595656820897   -3.21245828151692   -7.95800632367046
N          15.53197159067055   -2.95068847730779   -7.13366968452746
C          13.99618304293679   -4.94637547762612   -9.32147688204453
N          14.09376271618677   -6.07289981311788   -9.52610546625287
C          13.19249023997118   -0.50126464502354   -8.29544312614002
C          13.19725134235691   -0.85358607531251   -6.94067324634644
N          13.53219101605896    0.08817216557004   -5.97817477392792
C          13.37975617552002   -0.46639651261438   -4.75519304405051
C          13.48869751357089   -0.22996905810729   -3.38644074877569
C          13.07622357243624   -1.40431107049318   -2.75328336581091
N          12.71775973327706   -2.33455263942530   -3.70267359488789
C          12.89275969638877   -1.78947667148992   -4.93658705578057
C          12.78130942548222   -2.03554342399075   -6.29191441334522
C          12.99765425614897   -1.68559558084796   -1.34020337008950
C          12.88701725737766   -2.97407909898717   -0.87119683887082
C          12.77991644442276   -3.22987270005303    0.51227798717135
C          12.64020415067266   -4.41036819552559    1.22517323079517
C          12.59842720306426   -5.81516276394462    0.72293594592838
C          11.32298094596688   -6.08906021855689   -0.09373968574939
N          10.16822120279858   -6.11780524170815    0.79108660986210
C          13.85341647644676   -6.17941788889307   -0.09003268260882
N          13.87621139126993   -7.61126083793542   -0.34159313246174
C          12.51048463422224   -4.04086869018548    2.61398578021762
C          12.26344103151241   -4.78206625569984    3.70835752986337
C          12.12113424277207   -4.16638877167880    5.06079868115900
C          12.32681180713124   -2.68508378450831    5.09226528047001
C          12.55269495146386   -1.95491301479172    3.98481773754484
C          12.62678294414383   -2.57935664549047    2.71628478215945
C          12.78323878445903   -2.09807721758253    1.43448266592890
C          12.91996054412998   -0.78507032926100    0.92496217528642
C          13.02534492049966   -0.59023364013511   -0.41161109568939
C          13.07378837042628   -4.87048347423474    5.99176058686745
C          12.69700873065958   -5.81702655811131    6.85591011951772
C          13.57093123629709   -6.56190244507166    7.71432405875800
N          13.07209033216881   -7.59785268206230    8.47190880615356
C          14.10240785184695   -8.17416508812594    9.14708709823850
C          14.43946443714724   -9.21012799043082   10.00003771397678
C          15.82857971170352   -9.10769815769652   10.20854269315947
N          16.30598222304559   -8.00636565916076    9.51484100061082
C          15.28247638750845   -7.44915507397899    8.82917298982690
C          14.94268149482296   -6.43969313674095    7.92854707426141
C          16.68449470050345   -9.85497647440402   11.03161382264488
C          16.48931267048887  -11.06926521448010   11.63733226827320
C          17.32082865584782  -11.42286614786239   12.81278155837532
O          18.30253930194306  -10.83281676999780   13.21154366885635
C          16.67045297611121  -12.60503787972107   13.41340375475551
C          16.97961868220129  -13.26764013548857   14.56500951238421
C          16.19105128799275  -14.37337279235653   14.95781840355032
C          15.08771103032585  -14.76619411918623   14.14642629075585
C          14.30228971241574  -15.86463016510820   14.54589561211660
C          14.61702399654562  -16.53154973775017   15.69699032497640
C          15.69893378856061  -16.16293094017845   16.50706706210379
C          16.47005691487040  -15.09665563260689   16.13501822222696
F          13.86797248277009  -17.58346073925975   16.07922384190003
C          14.79545732356130  -14.06420752103132   12.95299569759334
C          15.57995927192420  -13.00469074583019   12.58879924578152
C          15.55011641703690  -12.13651676876957   11.41214110607385
C          14.93228947445008  -12.45204512833122   10.22506486408509
C          15.16328870925557  -11.76624587120905    9.01866960469826
N          15.35561690745943  -11.26711664958360    8.00203505166217
C          14.06548182176057  -13.54770435921249   10.05500157453250
N          13.32700106442638  -14.40695260452348    9.86445441818104
H          11.30069821835422   -6.24549720268211  -13.00997674503927
H           9.66263162379624   -4.01935410347368  -16.26056880830759
H          10.27278417469458   -1.89172356188551  -15.13677543916269
H          12.29812937070961   -5.09090288674192  -11.09719054471303
H          11.26704835619018   -0.69537812792439  -13.21610970092459
H          13.24282469189714    0.56491327453305   -8.50163803425616
H          13.91134084582450    0.99573115764705   -6.18791489730538
H          13.84448075612848    0.65832976245501   -2.90629367231859
H          12.37187264131662   -3.25665172549157   -3.50443228609932
H          12.40781461282326   -2.91628451744368   -6.77427423779740
H          12.89252397814604   -3.80872869243110   -1.55544254535540
H          12.57470903202392   -6.48717192815962    1.58807622094678
H          11.47590188353641   -7.02765489586796   -0.64867265705069
H          11.16479438041788   -5.28073651329081   -0.81069435852394
H          10.21917376123748   -6.92786088299462    1.40069437489257
H           9.31367293535922   -6.19545576152470    0.25098767691788
H          14.73988323077209   -5.81536889190515    0.45637374774357
H          13.83341344315130   -5.68032464774096   -1.06009499643159
H          13.99482266886938   -8.12008497872292    0.52874587562030
H          14.65323347338751   -7.85224057311508   -0.94658792782286
H          12.14949130101329   -5.85631554751337    3.66460242135187
H          11.09741431162844   -4.38055712388479    5.40562198757279
H          12.27229126464326   -2.22504820608471    6.06745188963088
H          12.67632787186878   -0.88329644978080    4.04904222550117
H          12.92891236894921    0.05112036362367    1.60877476661877
H          13.10869959422703    0.40898367338998   -0.80757008208387
H          14.11115491884490   -4.59141441645340    5.88949778620770
H          11.64823803305063   -6.08417568419911    6.92371969535164
H          12.11754922402521   -7.91351308218048    8.45332555719608
H          13.78869581043045   -9.92706354737564   10.45907676371367
H          17.27927517949798   -7.76069641292986    9.45144305673056
H          15.58681715414115   -5.71132141506056    7.48072438171432
H          17.61885021957020   -9.37106638678667   11.30417458982425
H          17.81730429341246  -12.95494246932291   15.17025562235599
H          13.46399143464594  -16.17913987852677   13.94398969827512
H          15.89985093722806  -16.72702608889740   17.40402108342416
H          17.30929937156694  -14.79364178517243   16.74296088351286
H          13.95173104399159  -14.38085743702931   12.36042638509258
