136
 SCF done       -238.951825208308          0.000933145619
C           9.50096251653454    2.99631347989294   13.22797681379132
C           8.89499853257429    3.53935863249044   14.32628845499311
F           7.60052565339302    3.27083132557845   14.56976360810968
C           9.57593893375762    4.37057149611829   15.22661874843484
C          10.89402246996966    4.65263811623774   15.00040274245098
C          11.56791769106948    4.12215079097843   13.88127232216393
C          10.85781229818973    3.27654559133280   12.97928727239104
C          11.51108021732802    2.73612038510774   11.84896195169150
C          12.82539516316488    3.04450603625672   11.62265186198645
C          13.53070359511254    3.89422939354996   12.52556712814325
C          12.92568800141703    4.41884507989788   13.63180500831026
C          14.90413009359031    4.10834448232194   12.03297117826230
O          15.80293022162324    4.72395232140551   12.55677894346305
C          14.92449678266727    3.47706536313683   10.68112177913807
C          13.73393814322766    2.65025232604642   10.55488756606891
C          13.58743377574912    1.57664434797022    9.72087604527978
C          14.63126856257707    1.07787831737470    8.91477511119872
N          15.46514224492590    0.58970729212561    8.29521821031119
C          12.40365236807344    0.81931521786812    9.61925808646632
N          11.44813762992952    0.20170599664840    9.46803908133228
C          15.81997329941097    3.88965470124407    9.75148972570413
C          15.80018771459760    3.65918777261771    8.34028327924615
C          16.93564239639398    3.41441936735904    7.61804465837028
C          16.55648197523728    2.95441722446101    6.30414061358182
C          17.43686003517348    2.61959668644171    5.27287948718836
N          18.12979789200459    2.39863204400363    4.38200846917627
C          15.18901054483588    2.94957798882441    6.21238561166417
C          14.65264393877035    3.52238901006868    7.41840835480210
C          13.39578369181380    4.06163403837024    7.58522787592280
C          12.20326042192507    3.88267329218171    6.71483064422775
C          11.10475256401816    4.13347999561947    7.48827379893298
C          11.54039360540733    4.65831364843135    8.75786121046984
C          12.91280066188037    4.67369418537889    8.78886813405565
C          10.70191603393694    5.08245676346747    9.79561956128008
N          10.03163584975540    5.40872924267123   10.66943910588885
C          12.13735346557441    3.62942500601005    5.30882552054252
C          13.07499252355622    4.02427724294371    4.42360756464461
C          13.06444406679154    3.77007860199010    3.00124776334366
C          14.27856790932182    3.57274053254444    2.36979127035805
C          14.32533246197948    3.29474164811030    0.99583730549903
C          15.39517594767009    3.00507113808245    0.14487049349168
C          16.81050090735218    2.74464153378078    0.50265424130542
C          17.50992163908764    3.97282765261265    1.12877184939996
N          18.85897284392725    3.62763100418853    1.53346136725753
C          16.89560933553374    1.50243941918110    1.42679003300207
N          18.05805129491722    0.73138053241640    1.05196433656749
C          14.83755085118908    2.85350007039025   -1.17876555519537
C          15.42762656551871    2.57362401957094   -2.35728156829277
C          14.63550248505145    2.43998364184385   -3.60324677473028
C          13.17727812234408    2.75033188516243   -3.45401919379257
C          12.59708377707151    2.99920942889332   -2.26259892494887
C          13.38716908978701    3.05248881339392   -1.09335652389442
C          13.08494033027739    3.30003187709205    0.23876942426586
C          11.85870136340078    3.50465581809169    0.90437250122176
C          11.85289812449452    3.70600086008907    2.25143630523489
C          14.68601765088553    1.03533368710239   -4.16771464673191
C          15.14488186594505   -0.04341426190997   -3.53060363116894
C          15.07080644789420   -1.36773459052947   -4.10273820422373
C          16.04774763134659   -2.30909843589388   -4.09711181238572
C          15.64488174276858   -3.38873687274668   -4.97859859109826
C          16.39478862250220   -4.55062361612879   -5.19554271526967
N          17.01726152968786   -5.50062274353197   -5.36457675213785
C          14.43256892347288   -3.08339219737502   -5.54530787555211
C          13.97431155946130   -1.85722020970081   -4.97287546944067
C          12.71304352408686   -1.30160197529536   -5.01636831615772
C          11.68276486696323   -1.38892237753922   -6.06400468379752
C          10.63002803894661   -0.60328048264625   -5.66747068784519
C          10.91954123968790   -0.05100257861545   -4.36784684371210
C          12.17932948577652   -0.44214237460969   -3.99504076785184
C          10.06560248071308    0.76584279148367   -3.61765868498636
N           9.39227263403087    1.45593299829586   -2.99372815161060
C          11.78989577707898   -2.09750447182366   -7.30214275538412
C          11.30124420575473   -1.69694952424509   -8.50652657038641
C          10.78993004406667   -0.40271066540671   -8.76043770156415
C          10.18350698803213    0.09497102703313   -9.87490009260262
C           9.46146449278546    1.39228506100625   -9.73914197690566
O           9.58370269799213    2.18952150330220   -8.83569898850223
C           8.54093574594371    1.45146028619870  -10.88704129767531
C           7.57421223673139    2.37390090307077  -11.16696221645892
C           6.77329844081579    2.20476818235088  -12.31792039978258
C           6.98513728658062    1.06966506263790  -13.15371552083779
C           6.17619601580931    0.90051885946178  -14.29412604949021
C           5.21196578813185    1.82774799668438  -14.57643183473507
C           4.99015660627555    2.95171669540556  -13.76878565832589
C           5.76459148427109    3.13006508316349  -12.65653362870509
F           4.43952139100183    1.66893464377159  -15.66596461216256
C           7.99851605479015    0.13322573906365  -12.84173286917580
C           8.77323043401627    0.32668630786989  -11.73029961005694
C           9.90197583636967   -0.43362096778294  -11.19271234293120
C          10.66535511379045   -1.30586301135659  -11.92349545654479
C          11.91683107566893   -1.81333322000909  -11.51903542222308
N          12.96348247807062   -2.21236472007631  -11.26723295210198
C          10.34822637745303   -1.71328433715593  -13.23670409513453
N          10.13161580887442   -2.09428571054145  -14.29754782612432
H           8.94596399138189    2.36311241198544   12.55407783441465
H           9.04469870990611    4.77133423139839   16.07540270558717
H          11.43847594051349    5.29258378377312   15.67838808696689
H          10.94957919871401    2.10951929050218   11.17384140764535
H          13.47567206187533    5.05954897768307   14.30487233786277
H          16.67150452855556    4.44376466544090   10.13505552455865
H          17.94540979941261    3.44745288960731    7.98259478892949
H          14.61805228250762    2.58223747399973    5.38412681824643
H          10.07729733812719    4.05902683787618    7.18530346566370
H          13.51362227078586    5.08824532403272    9.57249046762168
H          11.22610521234254    3.16185701777766    4.95817109145466
H          13.95046210065131    4.54653372806224    4.78862913548656
H          15.18856933113482    3.59422042085468    2.95091297124227
H          17.36849224493904    2.48346288156493   -0.40038009341333
H          16.89819207318980    4.35791776221059    1.95758307527682
H          17.56052622796825    4.75489559608190    0.36532976471596
H          18.84942001830279    3.16197761440027    2.43687204423504
H          19.43562616343234    4.45541507781459    1.61890090542583
H          16.01221775824545    0.87206988398145    1.27411384070541
H          16.89526381440409    1.82870791413149    2.47675560435828
H          18.89348400892641    1.29580163444427    1.16464425448715
H          18.14344157517940   -0.10394244956786    1.61830163527072
H          16.49456829657474    2.41882160653104   -2.44002892803097
H          15.06858363125457    3.10689637748901   -4.36447059573146
H          12.58972998644578    2.71916262912901   -4.35870872706454
H          11.53368165546280    3.17379407227308   -2.19568794956704
H          10.93806592065263    3.49254216161360    0.34080464039965
H          10.92100253222258    3.86586479829687    2.77174320753867
H          14.24228953582890    0.93845772278654   -5.14888334602363
H          15.65116775664548    0.04515575299747   -2.57805412426371
H          16.98961627916013   -2.26876260338796   -3.58327558786435
H          13.88008301815076   -3.73082847295158   -6.19659288355226
H           9.69736684504707   -0.46537074890469   -6.18186487088512
H          12.64772746837396   -0.23091472215390   -3.05414091387681
H          12.29601597694999   -3.05129446585728   -7.27246986494677
H          11.36072618146948   -2.39691479911051   -9.32512181926895
H          10.84203307775760    0.30806049796563   -7.94241161082565
H           7.42196380190269    3.22258544904100  -10.51705094046360
H           6.32145011706579    0.04935898018181  -14.94084413387730
H           4.21469080023627    3.64960370795678  -14.04202572485970
H           5.61252394680466    3.98761960808213  -12.01851321684093
H           8.12833726821981   -0.72024068468856  -13.48792644517237
