111
 SCF done       -213.457929833394          0.000875184970
C           4.68851514251961    2.73783221394715    3.91987777068869
C           3.41019124983791    3.19845533384941    4.07097804140843
F           2.63645998673708    3.37082380480899    2.98756117228692
C           2.86356743206621    3.49818818929331    5.32700510837773
C           3.63303920436042    3.32595456487283    6.44366727731382
C           4.95931813533364    2.85783420263960    6.34595457751954
C           5.49582065586542    2.55661475033651    5.05898346772284
C           6.82373555995424    2.09227557068670    4.93537450705016
C           7.59195583019787    1.94957041623115    6.06058174065110
C           7.05178499218743    2.25194108778640    7.34474393278708
C           5.76688210129922    2.69012918839828    7.49256888832325
C           8.09250045045056    2.06084518316019    8.37121118274469
O           7.99327734233585    2.16514055250875    9.56983640917776
C           9.35065417192390    1.81111068907144    7.60095388851951
C           8.97632803896223    1.53259421859790    6.22264659748982
C           9.70781698577218    0.83274773924710    5.29881901973889
C          10.99030744403352    0.32155546513175    5.55019859326264
N          12.05599941541441   -0.08977456721421    5.67029091634716
C           9.30888330195583    0.59836038164313    3.96711535913162
N           9.08355470413148    0.42894967354729    2.85446163375530
C          10.54072354181449    2.05544516465524    8.20176517935871
C          11.83045140686948    2.26119649549367    7.62352975617944
C          13.00723259929028    1.85502975812140    8.18010141628219
C          14.07053462230991    2.06532300931785    7.21965710285512
C          15.41611033941025    1.74295657452860    7.42849377384479
N          16.51378648025405    1.43461258137870    7.56456427989362
C          13.53928291599840    2.57623216290599    6.06501668438968
C          12.13009332354333    2.75431600675851    6.26227565439697
C          11.22600072360352    3.30653146826517    5.38868451509436
C          11.25472483286210    3.23052208026067    3.91228954529057
C          10.11427030614027    3.83736049929812    3.45460519683404
C           9.36909003824519    4.34006730350423    4.58192813312721
C          10.01571795517323    3.99056373263665    5.74198880474871
C           8.13743013217661    5.00512230051455    4.50185508413903
N           7.11008884554448    5.51353401852821    4.44842840419559
C          12.20241937992927    2.46254918925688    3.17759053066762
C          12.25764734676877    2.37188025261014    1.82876075816400
C          13.25511083220368    1.60929349978295    1.13868121780040
C          13.31156252924820    1.53548404226785   -0.22467358516906
C          14.34700984992816    0.80421406667187   -0.87414634012256
C          14.43073819808072    0.70545335385073   -2.25515451317383
C          15.46319996032480   -0.01226196570051   -2.87896361656659
N          16.31490755714247   -0.60118993340198   -3.37639060019297
C          13.49618987609048    1.32632782533223   -3.09890166203156
N          12.72991803860428    1.84094689487410   -3.78253457541193
C          15.30641433459994    0.18783195082563   -0.00778294034096
C          15.18069314146707    0.29339129452711    1.33834787252761
O          14.16981315469641    0.98334755059793    1.92419204814435
C          16.14843619647854   -0.26924200553697    2.26386097007242
C          17.49507748724530   -0.20348561548423    2.10567486726108
C          18.12698944227432   -0.74335167049440    3.29900409411499
C          19.51426043672835   -0.87110921252470    3.46315780892112
N          20.65017478653369   -0.97168903159845    3.58558599928647
C          17.16009738305745   -1.09600542583194    4.19471454619118
C          15.87384924432373   -0.87473882822047    3.57975413939388
C          14.67030547681199   -1.35300183923975    4.02147182217099
C          14.32982960447114   -1.84114214877529    5.38026158086358
C          13.09238441312754   -2.42168959555092    5.29837291029535
C          12.61082590756892   -2.31095165401463    3.93893114337506
C          13.53134287642708   -1.63260316924525    3.18896800827096
C          11.36771281702184   -2.79928872933311    3.50991682448809
N          10.34200857344647   -3.19585142224719    3.18437894785636
C          15.05016511240676   -1.54776580158712    6.56720518285283
C          14.71823585000497   -2.01630003497351    7.80175018399428
C          15.44682437147645   -1.67184914842829    8.96016599324907
C          15.17375474331927   -2.06111694248576   10.23971199125458
C          16.24218511734038   -2.01069998610701   11.27875531916564
O          17.27314408766210   -1.38359601212371   11.22691040240188
C          15.78933222998926   -2.93554420280682   12.33632261834088
C          16.45378213588102   -3.35278692036670   13.45324304199197
C          15.83303666415033   -4.28152533816434   14.31836921721926
C          14.53041882185978   -4.76788315732205   14.00280933558595
C          13.92198365097048   -5.70163782943432   14.86366804041922
C          14.58961825609157   -6.11747291911154   15.98221256565091
C          15.86911057800929   -5.64888397546286   16.31137428249609
C          16.47518854899617   -4.74342601661660   15.48558408210222
F          14.01033602413591   -7.00823725837161   16.80530218454895
C          13.86161539454353   -4.31206452271180   12.84277032350851
C          14.47916839133181   -3.40412261584820   12.02590261463728
C          14.02968902731012   -2.73917836389649   10.80577826627772
C          12.72263201947410   -2.60671662733651   10.41014233443222
C          12.28153525380980   -1.69185475640161    9.43288893996260
N          11.85334857555306   -0.91139697509852    8.70689271599627
C          11.64580812027265   -3.27426785230162   11.03038956126534
N          10.73879105507969   -3.81411790749258   11.48092613446718
H           5.07735260946661    2.51661632249446    2.93844900656508
H           1.84927725644141    3.86023136392882    5.38417016391695
H           3.23345538459754    3.55210474483475    7.42064548803551
H           7.21155741820685    1.88050305782313    3.95106172540717
H           5.37291377904492    2.91333081063983    8.47271335057047
H          10.49649356713848    2.13155236174259    9.28453715151202
H          13.13678267612478    1.38589967112981    9.13635371974966
H          14.09805526517924    2.92357101819450    5.21664555252881
H           9.78273196751445    3.91440111934691    2.43703851735900
H           9.73898104047047    4.28840063775395    6.73539260052501
H          12.91445728250109    1.88919741928659    3.75362810317990
H          11.55779228098613    2.90057169881900    1.20149306954250
H          12.56538849389703    2.03930440305001   -0.81781747997565
H          16.12025260453985   -0.37819198882214   -0.43042297529316
H          18.03383301696136    0.20644741010752    1.27206149172294
H          17.32801195149453   -1.57828797185284    5.13713953455109
H          12.51524643586290   -2.84857047289778    6.09565523396714
H          13.46135245848603   -1.44839341630839    2.13450782465679
H          15.87316097366025   -0.85085472117803    6.49633699804961
H          13.89784197053980   -2.71163747964413    7.90093867697299
H          16.36628475145363   -1.11117645749338    8.82630007582469
H          17.44259098216826   -2.97980018273350   13.67409642180933
H          12.93641661622480   -6.08114377114038   14.64344377961529
H          16.34664276503653   -6.01271954219434   17.20722885700417
H          17.46050256330306   -4.36859437373438   15.71805728764482
H          12.88026080377778   -4.70251597926009   12.62387861995520
