119
 SCF done       -222.352576877285          0.000830170463
C          14.38865239367502   13.02527492871823   -6.06866639944947
C          13.70510077511378   14.16849675202784   -6.37672160466937
F          14.36358652685556   15.20741479000169   -6.91955198616514
C          12.32893396327686   14.30655112229648   -6.14758478897086
C          11.64195462684577   13.26171297914879   -5.59536705851440
C          12.29680520071319   12.05933688329799   -5.25760707785768
C          13.69649812235953   11.93769849057434   -5.50115482259107
C          14.37332992288087   10.73794220710769   -5.18185258563395
C          13.67217612344058    9.69657226713448   -4.63557625148013
C          12.27625752039075    9.83054355067592   -4.37760220826548
C          11.59759912158713   10.97560030061096   -4.68178279240626
C          11.77147673552197    8.59149119391883   -3.75773963372870
O          10.63617100214689    8.31899969929164   -3.44294832784342
C          12.97916973215889    7.74631051179449   -3.53981041664994
C          14.08818092682505    8.35115562289226   -4.25314222351996
C          15.21063241915108    7.70587749022681   -4.69810351859992
C          15.43397665458810    6.32394643166855   -4.52873733121424
N          15.62849490700030    5.19406887279728   -4.46856325532113
C          16.22232831420924    8.32774193587681   -5.45880281642653
N          17.07655869724433    8.79707950915584   -6.06423242354123
C          12.92166418145871    6.67349409179509   -2.71387755220577
C          14.01816770947273    5.98854204797726   -2.10674019006494
C          15.14604613841869    6.55775820335764   -1.58174083731239
C          15.92118410606674    5.53041447653193   -0.92964865375047
C          17.14932788126900    5.74160911224561   -0.29159194621900
N          18.14439550772387    5.92173634861552    0.25221990732471
C          15.25614200213944    4.33466362421082   -1.03779764497428
C          14.04358113564172    4.56050059167371   -1.76760195768496
C          13.15631101461026    3.61051998192358   -2.22516506375867
C          13.03586681994451    2.20198450053129   -1.76371368781970
C          12.28057452159012    1.53278176441395   -2.70931651678687
C          11.85326180181372    2.46973758457455   -3.69250619928243
C          12.34395060124522    3.72863493978703   -3.37868160936507
C          11.06131025389983    2.15007740264665   -4.80573481040208
N          10.41057448497908    1.87817314490292   -5.71069647749583
C          13.46408253211845    1.65342577092526   -0.54758649254469
C          13.77944337364471    2.36840982986673    0.58535690875863
C          14.27666631945458    1.84859022924819    1.78147161455320
S          14.15837228831370    2.83212594974217    3.21466610088066
C          14.83581881135257    1.59970268557638    4.23521105546844
C          15.17617244035251    0.46428779330995    3.47333960069755
C          14.88235743814914    0.60223316733095    2.08952738544649
C          15.25390525503000   -0.42704022660651    1.22487342152230
C          15.81195632670566   -1.60523562277832    1.69550817396123
O          16.11592419769077   -2.48726532617145    0.72513813312673
C          16.76854456795855   -3.71553219222025    0.97616038043260
C          15.99026821845525   -1.78509511950559    3.10481841920249
O          16.46291874642560   -2.98669462271171    3.52759019300779
C          16.65326235181787   -3.20316616510768    4.90742411472033
C          15.68729373382347   -0.74888085054013    3.95920118261298
C          15.08437065271957    1.83476327889290    5.60487857392838
C          16.18688437241804    1.41519202697874    6.31854236810434
C          16.16789306133242    2.05824620725915    7.59162444004512
C          17.13770962429711    1.93120849515431    8.59465561841075
N          17.92960806197386    1.87132350041170    9.42368335508743
C          15.05598983947049    2.87804216772376    7.67557232932238
C          14.31044864066106    2.75032340992518    6.47998018519387
C          13.02776006484587    3.20365841242588    6.23106782418654
C          12.32244309195600    4.33664650624154    6.86740222753966
C          11.04828647870660    4.35861561341477    6.36090062395560
C          10.89272645867072    3.25595195158459    5.45105006592230
C          12.08777620654546    2.57971833228966    5.35628802210590
C           9.71181081817008    2.93213726501230    4.77189594647530
N           8.75419332582009    2.66785941990189    4.19625769473048
C          12.91480648904524    5.25293712786093    7.77672004156461
C          12.27040877955809    6.23443369307639    8.45758013030043
C          12.92424902703594    7.05548823707239    9.41941954513490
C          13.95178895935890    6.68701252273731   10.23072531629862
C          14.84589235255655    7.70752899617325   10.85205125370105
O          14.62983557721912    8.89260971725278   10.95005961124056
C          16.06018913671132    6.96340422231506   11.24132375646937
C          17.25128230405055    7.43740308365416   11.71183368136571
C          18.30614734634549    6.52932264985877   11.95744207880687
C          18.11305943404765    5.14112251300562   11.69417502566241
C          19.17873893067445    4.24430673823202   11.90139750187992
C          20.37018854895114    4.72339628821627   12.37076671531063
C          20.57639325682093    6.08127129155280   12.65370890061240
C          19.55544758978082    6.96607916438250   12.44410624980750
F          21.39371773340536    3.87581350171084   12.57523692720880
C          16.86132226703430    4.67271684040223   11.23319467383160
C          15.85039252654177    5.57013646007837   11.02197981124218
C          14.47796194461627    5.37920098665553   10.56892876095674
C          13.76163463839478    4.21758706253131   10.69427588986832
C          12.38126594556443    4.10903232700813   10.42633507574601
N          11.25816385857368    3.95850509672385   10.24532934095849
C          14.31221168818903    2.99997425352983   11.14700085900691
N          14.70738307736839    1.97326973382750   11.47424084687577
H          15.44740134610848   12.95276457715502   -6.26261469299012
H          11.84335760372584   15.23255510417360   -6.41168558524672
H          10.58169652713152   13.34425960029072   -5.40958264289975
H          15.43355521297758   10.67459776623375   -5.36991011134759
H          10.53857208152656   11.05300332877774   -4.48623772829638
H          11.92433680309984    6.35865659033015   -2.42021148444379
H          15.41401132542459    7.59860479160226   -1.60118965206480
H          15.63481342445183    3.37701104677675   -0.73798238410256
H          11.99978096919831    0.49653160646192   -2.68602484995350
H          12.23912780795471    4.60630381956765   -3.98680884211117
H          13.42505950125202    0.57461845099880   -0.48296546948109
H          13.56023807852857    3.42945081762697    0.59408120210593
H          15.14816698573397   -0.33549929289725    0.15779817093865
H          16.92828973753304   -4.15136316875735   -0.00948126278967
H          16.15074928914430   -4.38565641919038    1.57590639761130
H          17.73064533025387   -3.56739804815925    1.46927225140550
H          15.71507856471697   -3.11022264018520    5.46191735335855
H          17.39665359724671   -2.51663419804513    5.32276925325704
H          17.02145061544211   -4.22413327539908    4.99011328401991
H          15.81763215434588   -0.86135013375035    5.02151484145502
H          16.99464595985967    0.80580965958097    5.96119185114607
H          14.75834347130143    3.40093385149558    8.56045360433979
H          10.27455722850268    5.06868071857821    6.58049145461970
H          12.24109309644669    1.65938752283071    4.82577281493509
H          13.98199845072672    5.16337135026617    7.92526480524645
H          11.23407867830220    6.45403852851258    8.24587662026814
H          12.61330208032631    8.09274327058739    9.48869472543431
H          17.39083061604581    8.49341110407153   11.88855448800722
H          19.05044888758930    3.19555370578055   11.68381115498411
H          21.53750524943615    6.39931394165523   13.02577274463383
H          19.69454161271250    8.01707054737727   12.64836668886992
H          16.74582715608884    3.61766772959624   11.04004030113188
