114
 SCF done       -211.522183923273          0.000658775095
C          10.00963452642849    2.83751051618964   12.22499591460401
C           9.54916205974785    3.39495376470566   13.38560631291166
F          10.02445666469688    2.95609731375558   14.56463014933273
C           8.59050915323200    4.41710725616914   13.39983750753511
C           8.09559038340027    4.87653508689531   12.21091639565215
C           8.53472507446279    4.33725350941928   10.98484906812135
C           9.51180559852895    3.29952617564586   10.99140290046888
C           9.97409970553275    2.74763879808882    9.77328857157615
C           9.47198633060606    3.21859665417707    8.59059646332427
C           8.48151686549426    4.24275919969797    8.59222996530563
C           8.02278402263818    4.79794197219459    9.75070667344625
C           8.07819375036324    4.52461667038643    7.20175220735937
O           7.30931261085258    5.37041520645326    6.80377370485094
C           8.78338708671621    3.50884634615826    6.37431420680551
C           9.76690887932289    2.86155471051045    7.20398176676558
C          10.92658895593849    2.24437674664242    6.79358401032909
C          11.34467676979876    2.09202747605632    5.46540711686692
N          11.80301025236576    1.95894461855243    4.41736583151386
C          11.91385267269609    1.76495868236828    7.68028603197857
N          12.75029256266892    1.35174385717923    8.34898330528980
C           8.38487353937282    3.33223866434332    5.07926999229652
C           8.58763590428434    2.22467153771663    4.22942443988307
C           8.95366715097696    0.93146829870343    4.57919960829126
C           9.09680291830705    0.15786762612921    3.39368493554811
C           9.42092987846217   -1.20307256354952    3.34620405701712
N           9.70479717021906   -2.31458063062039    3.29851610434943
C           8.89561678285948    0.98393365555913    2.30024623736244
C           8.53878533335057    2.27927057550388    2.77687843485232
C           8.25262176648966    3.36151229196437    1.93949309644515
C           8.88552784485736    3.50893718574196    0.59658902841369
C           8.17408190628706    4.48438661609976   -0.08741161802312
C           7.20330744877325    5.00606562887780    0.79414540026028
C           7.28109204278904    4.35207348626542    2.03762054972608
C           6.29587223779087    6.02454875667252    0.47257015119234
N           5.55561364699012    6.85847637784459    0.19977605615327
C          10.10427948763755    2.92688137935759    0.24615149525546
C          10.98678209840655    2.39810525722447    1.16737442032902
C          12.14785958384415    1.67551950729611    0.88134205367272
N          12.96527119904306    1.24947456012404    1.90467848430988
C          13.99395146055292    0.55503145903946    1.37121152840233
C          15.15184038847708   -0.14333336930361    1.66559260420613
C          15.69167363083510   -0.55681716339906    0.42966556375340
N          14.87572183715348   -0.12255515092508   -0.59477439013563
C          13.82752715321489    0.55366836188255   -0.05570557804014
C          12.67785380619438    1.24207605558648   -0.36349886115541
C          16.88001133508393   -1.28899210828688    0.22569443465484
C          17.43761706344796   -1.52724017400437   -0.99764964289829
C          18.63072232897644   -2.23118086500977   -1.27388311028105
C          19.38428675536944   -2.03007755623978   -2.40793619193253
C          20.62060042602967   -2.73639707008133   -2.26985575122205
C          21.63006734892142   -2.76602930995843   -3.24245195086640
N          22.44945637694407   -2.78095968484791   -4.04570972128857
C          20.64513432424520   -3.37811886975687   -1.04807521053731
C          19.39271697500963   -3.16182522079832   -0.40520955986666
C          18.92198079257516   -3.88123504675085    0.67041076016049
C          19.73553769029537   -4.66321880009091    1.62153144681690
C          18.87335080381675   -5.39017914701599    2.39985413705769
C          17.52387632622703   -5.11731182423471    1.96842484225748
C          17.55216205706009   -4.18982246350543    0.95550418178596
C          16.37709929662183   -5.72509136942521    2.49793736971001
N          15.43527079645946   -6.22412313096445    2.92324484736974
C          21.14428279340787   -4.55624044219238    1.79554212866508
C          21.90645368917187   -5.51605335249082    2.38231522710930
C          23.29204964016219   -5.35268384444640    2.59334655674476
C          24.15562899498894   -6.19389098010012    3.23172415108758
C          25.61907615516303   -6.01108518076092    3.02516975553185
O          26.16192145104507   -5.04563841541399    2.53738791524531
C          26.23828598493575   -7.26694098563980    3.48575126990234
C          27.54353990283115   -7.65911903616685    3.40934840027889
C          27.90849430871598   -8.93712572808688    3.88788371439581
C          26.90390159525225   -9.79134576276936    4.42910738429560
C          27.27143699062927  -11.06823649625515    4.89627945449534
C          28.58004986208965  -11.45750980172156    4.82521554190082
C          29.58271934638536  -10.63144064200931    4.29890642861655
C          29.24291423971291   -9.38992446348250    3.83834284820236
F          28.93355766551315  -12.67578854058629    5.27241772648062
C          25.55975718055507   -9.35630736907283    4.49924927215402
C          25.23238640256654   -8.10754927243064    4.04411668139818
C          23.95808751226035   -7.38915408959775    4.02197645721862
C          22.86832967317903   -7.71244232214632    4.78867176350180
C          21.72766721408226   -6.90372599793012    4.96797577556837
N          20.78465482058252   -6.28637730087570    5.18833982550619
C          22.79068389233106   -8.87394644636671    5.58698979861141
N          22.66156998545571   -9.80741420698834    6.24241247213816
H          10.75104103870933    2.05428377551060   12.25201537726557
H           8.26414655472276    4.81782389577415   14.34637336044663
H           7.35598542446460    5.66287828657937   12.19615014435283
H          10.70474074136308    1.95509340822019    9.80976912766859
H           7.27709405761207    5.57837627822213    9.72763068287472
H           7.77120311235652    4.13757464353873    4.69152553502838
H           9.05605525484378    0.54070442606089    5.57503398897290
H           8.89159346748917    0.67477564622849    1.27255207447013
H           8.37153075450683    4.84833867507685   -1.07782927200939
H           6.60099750783679    4.51505849593554    2.85195013044839
H          10.39022191807114    2.96068103931862   -0.79733076356627
H          10.81303645309903    2.58102359059447    2.21852899866981
H          12.74963209722581    1.41777975886785    2.88501262465845
H          15.58366479235396   -0.34407287785411    2.62497221190927
H          15.01678058285694   -0.32033986962241   -1.56964414390893
H          12.24999280864712    1.43440176376522   -1.32628715805010
H          17.37640580377239   -1.63754097457141    1.11943303771156
H          16.99804614645426   -1.05623489641232   -1.86967229310980
H          19.13115046403009   -1.40522077607566   -3.24417169452410
H          21.41460094312021   -4.04700727850902   -0.71461974596076
H          19.12861222093042   -6.00979176914122    3.23933572105120
H          16.70521172901003   -3.84923677934003    0.39194931838703
H          21.61823308980560   -3.63846486748780    1.47088524267658
H          21.44371356152839   -6.44995026872413    2.66147393830492
H          23.76052505651034   -4.48400183775310    2.13981505511485
H          28.28927882421791   -7.00192446328476    2.98781630424969
H          26.52660605274431  -11.72931268039810    5.31115190359729
H          30.59829906273319  -10.99293772328478    4.26860356016768
H          29.99745211492737   -8.73577912845086    3.42800138275425
H          24.82135822312842  -10.02963714057619    4.90455202224082
