110
 SCF done       -195.597530827820          0.000501526959
C          12.73110638209234    7.76693906322062    6.20064623538413
C          12.42499647500911    8.32909212075769    7.40876060374594
F          13.29203923092624    9.18817875768683    7.97876026922339
C          11.23334441007594    8.04653456028059    8.08829457968342
C          10.34158671905585    7.17607902284798    7.52461599986700
C          10.60640009118650    6.56739492003779    6.28153452340773
C          11.82343950542859    6.87014632357311    5.60570280340270
C          12.10741468536357    6.27871660674742    4.35130654490903
C          11.20623787953936    5.41070201252509    3.80100477254895
C           9.99638572725738    5.09955810298938    4.48767957460535
C           9.69302948813698    5.66229851781418    5.69224028752566
C           9.22428173820319    4.11922686205634    3.69191004919762
O           8.13221642432177    3.65426261539096    3.94333277428506
C          10.09504605879065    3.78427116432737    2.54625968760854
C          11.20790186935366    4.68780515089858    2.53072260891354
C          11.98647674094625    4.98867943360145    1.43513514653161
C          11.70836852474694    4.51389373588419    0.13857536041644
N          11.46577872349911    4.21829351942587   -0.94514639622873
C          13.06771480009904    5.88677123495938    1.46733207691435
N          13.98001028550890    6.58520204036664    1.45651803482916
C           9.84023326734547    2.69724787210156    1.73549920565339
C          10.79025999124588    2.02219994568615    0.98374692430233
C          10.80527256923187    1.04936728720411   -0.04049275925655
C          12.27796749101983    0.95752693638889    0.03017364877876
C          13.49774229677592    0.50859214965849   -0.30580646005486
S          14.70351420391949    1.33139888363252    0.66178062259941
C          13.49986129065817    2.29297736254030    1.51263437642158
C          12.28161119615460    1.97328125387428    1.05962738261565
C           9.88928199878779    0.47604493072281   -0.94468510523840
C          10.36348596372401   -0.42372103488464   -1.89294745772908
C           9.50202441488758   -0.92556991187521   -2.87047716357142
C           9.74901483428694   -1.76439774016197   -3.96161009947489
C          11.02782655329286   -2.46204665728615   -4.26124744457183
C          10.89493198574858   -4.00893795538051   -4.21243351357169
N           9.83101973854080   -4.52184075878572   -5.05354410686818
C          11.64680417067326   -1.97710465116868   -5.58509349526951
N          12.07004382145973   -0.59903712311459   -5.41396350043547
C           8.52065881364811   -1.83211215286529   -4.70640158095304
C           8.24393221165271   -2.36219222317424   -5.91610678763576
C           6.85437911814074   -2.35668846780715   -6.46770527883559
C           5.85216350916467   -1.62222915885877   -5.63880225542468
C           6.17125500587399   -1.01096949856355   -4.48311317969433
C           7.49425296822232   -1.06907649148438   -3.97779565344715
C           8.10594493556878   -0.50418109686725   -2.87902220112958
C           7.63797582054423    0.37405680852218   -1.87024218031387
C           8.50032846778739    0.84739775028352   -0.93910680949695
C           6.55822850728006   -3.82829188880233   -6.55689283325068
C           6.86657734751423   -4.56253893832799   -7.64333436627062
C           6.76861000518960   -5.96645980518212   -7.72333729725273
C           6.30371048833805   -7.02174048615770   -6.91795187395577
C           6.87780503082283   -8.01649088962692   -7.88074113509413
C           7.15937962316234   -9.22372334521550   -8.38276249239407
S           7.99858753562652   -9.03115344365661   -9.92079551472811
C           7.94101976958948   -7.28417770282189   -9.83927223706252
C           7.31801141530720   -6.91488565519934   -8.70858459182282
C           5.49658440032952   -7.15598468701721   -5.79573016914703
C           5.30366967101326   -8.33326231951073   -5.10747098259715
C           4.06905374344110   -8.60114563092914   -4.33613352009795
O           3.22752500251188   -7.79680532832499   -3.99997687872289
C           4.06473978111367  -10.06575833791551   -4.12657969915546
C           3.09416265368931  -10.85509043970120   -3.58335105420903
C           3.29528400469279  -12.25381195258293   -3.52233928750043
C           4.50817581814614  -12.80846864373592   -4.02426113464022
C           4.69727282749567  -14.20227898550272   -3.96886674566247
C           3.71635253290406  -14.99222346223371   -3.43595567416009
C           2.51773025121819  -14.46671134793670   -2.93653096246836
C           2.31873379392979  -13.11435655060374   -2.98197630043672
F           3.89503583846360  -16.32480059386486   -3.38421018055259
C           5.50419315148523  -11.96405350349153   -4.57087236070815
C           5.28404579578213  -10.61585689086040   -4.62140625273969
C           6.11161465422513   -9.51813873593700   -5.11261993855619
C           7.47142343975296   -9.55533687313021   -5.32826827358850
C           8.25320939473019   -8.39530296941842   -5.47423456254595
N           8.93315893859068   -7.46877568781450   -5.51215286109665
C           8.23211185178013  -10.73860617361634   -5.31813368054539
N           8.88418964932213  -11.68355158672462   -5.35188114524075
H          13.65735094661962    8.01017934261379    5.70375775716020
H          11.04519148669421    8.52030017213696    9.03868511117140
H           9.41635381841866    6.94243387748713    8.02976481373214
H          13.03621653747689    6.52423274098377    3.86058271840223
H           8.76692073135442    5.42267497282761    6.19315579707399
H           8.83541070158851    2.29339409934211    1.78595911960201
H          13.82855877625430   -0.21611617979916   -1.02278781297252
H          13.84190333323431    2.98745190283678    2.25422892621523
H          11.40744038105609   -0.69768271066465   -1.88643795242595
H          11.74847846407314   -2.19252800648995   -3.48282798485327
H          10.76936238595441   -4.29061535404730   -3.15609307560060
H          11.84383265239142   -4.42490298280557   -4.55843711063387
H           8.95145766328559   -4.52716377452966   -4.55053825140786
H          10.01110699946418   -5.47560301940554   -5.34535281550446
H          10.93619991233312   -2.12440367536310   -6.40990823312466
H          12.54005051526036   -2.57093227226435   -5.79743352093590
H          11.27088881117926   -0.00162563444034   -5.22897742116529
H          12.53698641027266   -0.25646620699480   -6.24533832963598
H           8.98842002489612   -2.88231715512222   -6.49696175095061
H           6.87013884839156   -1.93942501303352   -7.48377680956368
H           4.84315848436522   -1.60662643617308   -6.02176377851059
H           5.42312277226599   -0.46881262608020   -3.92345555383655
H           6.60056798341707    0.67402267919131   -1.86753687377026
H           8.16422758750142    1.54277116712602   -0.18777753699309
H           6.18215738113238   -4.29303274643439   -5.65840545553209
H           7.28040467354205   -4.07334092378956   -8.51713302070639
H           6.97304743398207  -10.22033569277703   -8.03461613347771
H           8.37354330043437   -6.71573115911359  -10.63802857144178
H           4.87969073556916   -6.31352679138550   -5.50420325132236
H           2.17976160151998  -10.42145853452602   -3.20700544657887
H           5.60927576743999  -14.64140766530914   -4.34208890673194
H           1.77936576926253  -15.13844393393550   -2.52841137618621
H           1.40263195547716  -12.68642866067621   -2.60359135332546
H           6.41261584026560  -12.40809296636157   -4.94712257390420
