113
 SCF done       -215.996627781876          0.000850619345
C           1.85779803415433   -6.11134651380046    6.98772503943481
C           0.76469846090196   -6.81099270495792    6.55721823190599
F           0.01049477361597   -7.47567398662896    7.44995716643480
C           0.39091253011049   -6.86607329954782    5.20721876072952
C           1.14565630627437   -6.19757506483513    4.28416915201868
C           2.28304014272063   -5.46021628903481    4.67283657566749
C           2.64453359581095   -5.41328614653945    6.05123772683485
C           3.77184398585346   -4.66718367918780    6.46764632115424
C           4.51112866682011   -3.99081767380655    5.53519879669233
C           4.15681184165094   -4.05892118489682    4.15623439628851
C           3.07195645086788   -4.76868741189230    3.72742165847197
C           5.12720784979402   -3.28349344787595    3.36406968895136
O           5.14068739399330   -3.12029109391847    2.16256567738614
C           6.14819275533446   -2.81528490094169    4.33653460659882
C           5.67276356829790   -3.11721046301702    5.67201299838308
C           6.07328745798203   -2.50325165198796    6.82933585649760
C           7.03003914452889   -1.46904579121136    6.87242121827676
N           7.76394582079244   -0.58924541210057    6.94686376351458
C           5.50698426719018   -2.76623501922167    8.09368721750005
N           5.08346421130302   -2.95588252569800    9.14325547911172
C           7.32051389723448   -2.28705606289556    3.89451559719034
C           8.55915241654533   -2.20325934456086    4.58902184591386
C           9.06836484480479   -3.10521689694054    5.48331116410442
C          10.45433844619768   -2.77944845885165    5.72867944401607
C          11.28520578580394   -3.45430562620527    6.63422627510185
N          11.97023469894778   -3.99068314492815    7.38192585441276
C          10.80376836051179   -1.69909201383962    4.95873328032259
C           9.63941260152523   -1.26061253737015    4.24967533094511
C           9.49691818781517   -0.07821717567524    3.56786749441453
C          10.58949683376446    0.77931977301715    3.06034702870881
C          10.02858269201018    1.97606341200693    2.68250917285110
C           8.61073794863840    1.89843390411027    2.89026872010003
C           8.28385441074725    0.65107047762338    3.38210755954496
C           7.70488584105292    2.91778551908860    2.56591900500264
N           6.96498948199544    3.74455116558101    2.27158250326838
C          11.90220480946666    0.31533258743129    2.82467198413075
C          13.01391415581756    1.08530037699378    2.66844765043111
C          14.29828324607326    0.53981284266492    2.36639280646146
C          14.49554553787129   -0.56126994231440    1.54763916560016
O          15.68738316528402   -1.24196015373138    1.50829512617775
C          16.71135616361537   -0.67182022963160    2.20573454220970
C          16.54542096694763    0.55526149901952    2.91378511096641
C          17.69181300684253    0.98216663316311    3.50144336475781
S          18.98765592682730   -0.10969724127173    3.20201113134024
C          17.97869122180135   -1.15177279014686    2.27560277900640
O          15.33336603692186    1.17477153528869    3.00169491363287
C          13.53745834928329   -1.04912242771968    0.60872071905349
C          12.63917577824171   -0.25451526605626   -0.03141152948100
C          11.72354119562731   -0.62473257719499   -1.04946554882205
C          11.47874819611314    0.19394113897688   -2.12927644836893
C          10.60069559610784   -0.47783238687307   -3.03381230376825
C          10.16842836326617    0.02263279215691   -4.26719367780321
N           9.77012323826696    0.44516302334272   -5.25820211294611
C          10.20177687527391   -1.67070182937679   -2.46127176536029
C          10.80496510102435   -1.78332992221960   -1.17570722632057
C          10.33703765018319   -2.59340514363668   -0.15139508010932
C           8.95631728249697   -3.14533036745895   -0.06839531909613
C           8.88346022734676   -3.90756237433653    1.07197236526556
C          10.14821379440155   -3.84482810546196    1.73718972732780
C          10.99618161109760   -3.00934114072353    1.03101858134940
C          10.44695602666685   -4.49972111346957    2.93391615875471
N          10.67027428218173   -5.01451248794426    3.93700539736748
C           7.87860310209862   -2.63500870873994   -0.82653205069858
C           6.54539220916969   -2.82768059418871   -0.61871857708290
C           5.56543081394891   -2.09870711606780   -1.32742089421705
C           5.68100838861916   -0.91595550633438   -2.01119449108639
C           4.64053512693588   -0.60228281254145   -3.03640181616200
O           3.57536447134087   -1.15866995209133   -3.17169190444433
C           5.21896955520461    0.47044544180246   -3.86441000947004
C           4.74184413312419    1.02243329110198   -5.01746494878729
C           5.49673750162932    2.02788468083338   -5.66286027159234
C           6.73589830409266    2.44520012772011   -5.09482181268654
C           7.48838175313214    3.43909565474690   -5.74832870418842
C           7.01319603615982    3.98528130765310   -6.90826036271165
C           5.79535190145763    3.59279344520871   -7.48010919255408
C           5.05354911932206    2.62599532035933   -6.85974692425890
F           7.72677737824787    4.93832689315372   -7.53341893508021
C           7.19757831774125    1.86638219743631   -3.89042954015613
C           6.45142475522413    0.89072983648777   -3.28680895249457
C           6.67819298851534    0.12744694435431   -2.06348197277481
C           7.56713604070138    0.49795272412278   -1.07951502937003
C           7.68825256930911   -0.12141608847096    0.17186913451449
N           7.88320597286649   -0.57243469528419    1.21191672708540
C           8.52108944870721    1.52736411845563   -1.18606860011728
N           9.37613973155904    2.29514015900784   -1.18963366641533
H           2.11322765870945   -6.08780144612756    8.03560798178760
H          -0.48249298988418   -7.43337188746808    4.92710406021495
H           0.87770010735794   -6.22495672954338    3.23862020272298
H           4.02623995650474   -4.65462840532945    7.51565959124217
H           2.81485764590023   -4.79864657537668    2.67901784263470
H           7.33981232025435   -1.98358625990955    2.85063656666296
H           8.57386816358908   -3.96499969305713    5.89615502687496
H          11.74480374593400   -1.18403046717417    4.99138011580930
H          10.52829300038679    2.81334176401224    2.23281545877865
H           7.31004996120388    0.32911569639314    3.69598348392488
H          12.00955308132903   -0.75828601318210    2.74168680910782
H          12.99341358639166    2.13214251762752    2.93583389821846
H          17.84064941587051    1.86389617101633    4.08884436299029
H          18.36766017237435   -2.04681255824259    1.83717844084991
H          13.69885103824017   -2.06623706252502    0.27735270048075
H          12.69483828557211    0.81259498433128    0.15328869249931
H          11.92917048597876    1.15070049927319   -2.31196187677510
H           9.60711713857341   -2.42343373366351   -2.94347145590097
H           8.02313915656935   -4.42713961060528    1.44822780236365
H          12.00972435664877   -2.79689822343178    1.30272672704968
H           8.14553082886344   -1.94864693356311   -1.61655989974308
H           6.19182149109364   -3.55928879827501    0.09122593142382
H           4.57870306652224   -2.54779814819671   -1.39218658285621
H           3.80146260088177    0.69497312950000   -5.43492167394979
H           8.43233417741969    3.76068556115450   -5.33799302773860
H           5.47096862243152    4.05916387009014   -8.39690135974314
H           4.11352332345617    2.30544451521614   -7.28316738528621
H           8.14063847593481    2.19844150605851   -3.48701076073370
