113
 SCF done       -212.453678199432          0.000965552921
C          -0.02390011922405    5.61263424554856   -0.74418015108135
C          -0.99728528983303    6.54968247114398   -0.53550309539487
F          -2.00869084789490    6.66033680836914   -1.41402471481640
C          -0.98561776993624    7.41255488458011    0.56946206503866
C           0.03476554865436    7.31612351414597    1.47390258293369
C           1.06534301366296    6.36788091837090    1.30790524394254
C           1.03457303946919    5.49841672690440    0.17805235925977
C           2.05215869731412    4.53432477432226   -0.00650317245747
C           3.06657247862569    4.44521290047531    0.90872771837093
C           3.09985615118914    5.32682332404928    2.02894127369848
C           2.12710089500849    6.26318920754527    2.23333192474753
C           4.30330911289699    5.05099733645994    2.83430578957805
O           4.64319591179219    5.56168855748463    3.87593440841282
C           5.06728880656374    4.03503828443916    2.05437333228351
C           4.20908244634230    3.54179756728852    0.99261805338116
C           4.32446890100175    2.33682410743559    0.35459955734311
C           5.32114158454519    1.38591364978096    0.65744506460875
N           6.08162693870863    0.56400726901277    0.90937294276530
C           3.41050506607884    1.87266090041023   -0.61457352391836
N           2.70065463077753    1.45939991440980   -1.41568515234598
C           6.36782720713881    3.79201774856837    2.34206431650584
C           7.33984105599488    3.17097066856868    1.49641070065378
C           7.49281637481234    3.38108852700108    0.15752161754004
C           8.69794566693828    2.71126249578328   -0.28044259732889
C           9.15458862480429    2.69382139415153   -1.60498944654544
N           9.53056860722845    2.69713062931382   -2.68938763273486
C           9.29678042956051    2.11703109002707    0.79806336822699
C           8.48011717585583    2.35628452234583    1.95444098345383
C           8.61109666436274    1.81194925961102    3.20617470747004
C           9.80597328748578    1.13758319339052    3.78686705685731
C           9.40145291821059    0.54286860985841    4.95691164791296
C           8.01224734982679    0.83850799838507    5.16612300385477
C           7.55149822594265    1.63973766710223    4.14475849633841
C           7.25901267979831    0.38340055704189    6.25927734482123
N           6.64715771581125    0.02939263742006    7.16246985484142
C          11.11342191884654    1.23159058066279    3.26545497806432
C          12.18369083898402    0.50577959322232    3.70522280191969
C          13.46855636584006    0.59193557189225    3.14949035816929
S          13.90461472363664    1.65978899585189    1.83105327295220
C          15.54075321797569    1.05998429926435    1.73785620650054
C          16.51281144196468    1.63083937322879    0.77113766690177
C          17.02966196469568    2.99078191098250    1.24957659897419
C          15.73025897501950    0.09674382916440    2.68113051329665
C          14.58096263303217   -0.17771627310158    3.49208015703670
N          14.74494758086584   -1.13432720120528    4.41384147106949
C          15.92575881442289   -1.66167568892959    4.38069978408782
S          17.03469043499170   -0.94456387672481    3.15881678916295
C          16.39909067142791   -2.70082311717475    5.22094918035552
C          17.70526794934896   -3.10207716001167    5.30528957836087
C          17.82646726985340   -4.05313892181998    6.37880383197679
C          19.01404388494871   -4.71673221591411    6.71888054748911
N          19.99080675047032   -5.25452562467546    6.98878218350800
C          16.60594941999333   -4.19321419932306    6.99281257711928
C          15.64438312868160   -3.40507127857466    6.28199005977988
C          14.29018518091253   -3.39845427354037    6.51371008081435
C          13.61273276073214   -3.75137258873873    7.78273554482197
C          12.26597118861760   -3.61901580808789    7.57735044197090
C          12.04312233879199   -3.24443311852484    6.19941801255818
C          13.25231697146101   -3.10575526571913    5.56880779667548
C          10.79048302923259   -3.00691006810083    5.61829458312172
N           9.77992032744266   -2.76036293717904    5.13298596764211
C          14.24340038286916   -3.98675331881359    9.03746914609777
C          13.62822229449523   -4.60050656278274   10.08174179106227
C          14.24794312647078   -4.75900537575626   11.34063846093350
C          13.69371998219340   -5.23941773607376   12.48984615251414
C          14.58737852999916   -5.67998873970048   13.59766991956070
O          15.76775470955709   -5.43952300738982   13.70878923657189
C          13.73940132480916   -6.50821614689001   14.47402274714808
C          14.09654346288172   -7.25086136436121   15.56243492020184
C          13.11121096884053   -8.00907933876768   16.23304613735711
C          11.76874996002345   -7.98727144887606   15.75411286106902
C          10.79277715853530   -8.75448456658787   16.41920425069679
C          11.15216917361631   -9.49903802001203   17.50810337645244
C          12.46598665707600   -9.53206536166919   17.99567529825282
C          13.42603740943686   -8.79393493447559   17.36140096891563
F          10.22218525466755  -10.23267741200260   18.14459873767494
C          11.42614911552412   -7.20273809741334   14.62821071283589
C          12.39548854437223   -6.46699385779229   14.00180257619019
C          12.33138375589793   -5.56158884720089   12.85539418072171
C          11.18360616174985   -4.98209625834559   12.38010542416470
C          11.13364306610618   -3.93109241362442   11.44186393107764
N          11.01996418392298   -3.05913634916279   10.70338003885256
C           9.89264119240518   -5.30550356198659   12.85087912754298
N           8.81926870246170   -5.54017455464532   13.18204665142373
H          -0.06676095826507    4.96236127896366   -1.60389058970666
H          -1.78095847364153    8.13222805228729    0.68134854602331
H           0.06502183654170    7.96949660600020    2.33275692623109
H           2.00957199973825    3.89461441643618   -0.87386792634889
H           2.16749570887503    6.91659547222169    3.09191961499136
H           6.72814837125263    4.20272499233719    3.28094130133064
H           6.86805878510359    3.97962800959903   -0.48034508313697
H          10.15337812159576    1.47362015971121    0.75509198513327
H           9.99912678896978   -0.02833169042010    5.64024240435315
H           6.53837131184931    1.96686222773933    4.01244671114725
H          11.28498689165830    1.94040324518199    2.46654138612432
H          12.07004523618482   -0.21896583042663    4.49921407849732
H          16.03261168612249    1.75210822060513   -0.20235864468393
H          17.34838023620740    0.93523449223573    0.66540873084834
H          16.20593357380539    3.69367567515947    1.35156474711627
H          17.74134952826730    3.38971018006089    0.53240039783067
H          17.52482966161700    2.89161935078251    2.21283142489009
H          18.52370224909472   -2.76134389090680    4.69832348616276
H          16.37985587866619   -4.88663941900108    7.77973068169499
H          11.48940926158956   -3.69855185068551    8.31523298092514
H          13.39968326353280   -2.90345393287726    4.52790870522548
H          15.24858468329405   -3.61054217953279    9.17333696197177
H          12.64075535329980   -5.01202132059006    9.93790101909037
H          15.30841595310796   -4.53476058696944   11.40443513770401
H          15.11991033554113   -7.26186934815677   15.90644694406233
H           9.77084688725558   -8.74994962815489   16.07354566429517
H          12.69017062569419  -10.13846071611181   18.85884972923524
H          14.44488872791072   -8.80363327948797   17.71824939644963
H          10.40447839651045   -7.21429032658668   14.28342972967660
