116
 SCF done       -212.031555420416          0.000766804411
C           3.86310419872259   11.55466253153671   -2.25479758963623
C           2.61379184354826   12.09019369137780   -2.10732070690698
F           2.13463108856678   12.92097589704896   -3.04893145468832
C           1.79972077784461   11.80606507981240   -1.00174873139506
C           2.26869378450403   10.96244692657835   -0.03383007428070
C           3.54961723320928   10.38125903971596   -0.13525803849423
C           4.36352117802473   10.68515812640679   -1.26614139615752
C           5.65565258318803   10.12341008354146   -1.38510677884827
C           6.11556070868928    9.28433472461389   -0.40576828027754
C           5.29022673674656    8.96983479293540    0.71385437253052
C           4.04132702560285    9.50353153633059    0.85595477300724
C           5.99792122467151    8.02230962450573    1.59373687969268
O           5.63816357297786    7.57090008917950    2.65597529302086
C           7.25210601796856    7.67847115854969    0.86388775549800
C           7.39555271341612    8.60275711997960   -0.24595261092239
C           8.56711952817526    8.94434208738466   -0.86533421001004
C           9.82503112988386    8.43139148295879   -0.48693344594746
N          10.87323929346631    8.08191065449223   -0.17564822155208
C           8.66012113144354    9.91446164036568   -1.88514793721592
N           8.77801328778178   10.68448465367038   -2.72749010936123
C           7.97865244924368    6.59578407047724    1.22966336427892
C           8.95887797436577    5.90737960047760    0.44919989897769
C           8.87966638032178    5.63204774373590   -0.88462931510216
C           9.98189948371767    4.76736569652788   -1.24463779236461
C          10.23180900370237    4.30705551399416   -2.54430508181199
N          10.42303252187691    3.92321397446817   -3.60882044136587
C          10.71704088187481    4.48903629727109   -0.12338874655536
C          10.13204507774352    5.19182044517020    0.98349832665315
C          10.63211595777613    5.32376714706651    2.25373166412743
C          11.68810484517312    4.49724130053753    2.90096573182955
C          12.03389694863935    5.13042819039585    4.06626140724327
C          11.21850073765963    6.30678617151261    4.21049529187825
C          10.34712805845051    6.39662139083098    3.14963884354513
C          11.31618699827358    7.20056490007051    5.28675387694063
N          11.40699918733857    7.91490422905130    6.18028500063944
C          12.11184071155628    3.23096471611647    2.43399845605390
C          13.16478032987831    2.52515395131681    2.93377067356289
C          13.57158083986280    1.27168453388249    2.42911408600647
S          12.95363744561629    0.69369100774256    0.90364497932464
C          14.03120508675113   -0.64341922967064    0.93036438578146
C          14.82822112295743   -0.67469690359561    2.02862585130292
C          15.83652358597469   -1.74395901402468    2.28458440574675
C          14.56005016591622    0.40762263897020    2.92740559578328
C          15.21663857071443    0.51244845618715    4.18696480817457
C          14.73090565670785    1.11701903493655    5.30542353840198
C          15.39840161160286    1.18896452006785    6.55546664255492
C          16.71192995573182    0.89573300435221    6.77992726434695
C          17.36943707818653    0.93421730382256    8.03209312735321
C          18.71666062913479    1.12700734123840    8.20554427329957
C          18.97263923846009    1.33385494740415    9.60178278313960
C          20.24700530778141    1.54274119572111   10.14841814779203
N          21.29586828942813    1.71699781009770   10.58006960096358
C          17.78360478980785    1.28806442912450   10.30120657953752
C          16.74659213922950    0.95858418466812    9.38437023332881
C          15.48267210622822    0.51950683426925    9.70670397837526
C          14.72287567481899    0.78585694985698   10.94370649098594
C          13.58852753334110    0.01328883775202   10.89630085721055
C          13.59725524035327   -0.75171911114759    9.67773795660697
C          14.71303970058307   -0.42196226090372    8.94708300358967
C          12.60915469164838   -1.67167810175832    9.30110335189515
N          11.79644432035168   -2.41381331829522    8.97525444338903
C          15.04743915530912    1.78607912166163   11.89748100396425
C          14.41251042437757    1.95557855362763   13.08866030559239
C          14.76916182312506    2.98147850322622   13.98912381842615
C          14.28506859755996    3.18946903507389   15.24763198994934
C          14.44956616481630    4.52478492273445   15.88597652173304
O          15.19880396581911    5.40625030152547   15.53250225665659
C          13.46571763001915    4.55078734109662   16.98470236582052
C          13.12217853783240    5.58604571199487   17.80529772797057
C          12.10926691707325    5.39334492480360   18.77112981609739
C          11.46439721179087    4.12530863480422   18.86292438621799
C          10.44562810785856    3.94422224137114   19.81831002584592
C          10.10092903609924    4.98363266956879   20.63692658801989
C          10.72557669166504    6.23633947538498   20.56496557711307
C          11.71547398964782    6.42987459586660   19.64212355963521
F           9.12767402103437    4.81280787388066   21.54940107891321
C          11.84822494814164    3.06690934054814   18.00637940616397
C          12.83944462639204    3.27441432202349   17.08601846418138
C          13.45464720196945    2.37815308561484   16.10890674137912
C          13.41444420986878    1.00839147091986   16.15727640287018
C          14.24003139730829    0.16296580868202   15.38660580073157
N          14.91722034652333   -0.56891559498842   14.81792399869760
C          12.61930769777702    0.28132512374956   17.06748812426176
N          11.97334736516169   -0.35649543577902   17.76974249044844
H           4.46362438152392   11.79859423381556   -3.11716612401884
H           0.82283663804566   12.25865652705695   -0.93953148164637
H           1.66010383888222   10.72861509691171    0.82663109246068
H           6.24793497720621   10.36351039696229   -2.25403251671904
H           3.43557467343086    9.25873998000212    1.71554573163545
H           7.71449641483896    6.15207445889664    2.18524284110700
H           8.11182438984753    5.94796356133922   -1.56729803725952
H          11.64226021609174    3.94716378312790   -0.10716576303968
H          12.75250285056456    4.81004916254015    4.79656776697351
H           9.66285451254104    7.20199528102822    2.96607157454650
H          11.52937597470028    2.77565471837943    1.64514033445994
H          13.76448864433685    2.94965182634450    3.72541424687053
H          14.01016578155398   -1.34278049014161    0.11751242714024
H          15.83682046844224   -2.46244803543241    1.46960834716010
H          15.60965527367288   -2.26870781495619    3.21169495632146
H          16.83513433738283   -1.31600572418529    2.36802277692384
H          16.15996985294940   -0.01200037740018    4.25371053577452
H          13.72647882299515    1.51656505714712    5.28662008207964
H          14.80101589751556    1.53849797092402    7.38705958469345
H          17.35823550701993    0.69614704418045    5.93453782999920
H          19.46480997176726    1.17684022398637    7.43674587054821
H          17.69316405482473    1.32140159977438   11.36971057614633
H          12.79520969813331   -0.02373729486040   11.61817745403839
H          15.02330297288376   -0.88242563140753    8.02911784610860
H          15.86077315451568    2.45599865792972   11.65318437559779
H          13.60291990921693    1.29406538428377   13.35595192979176
H          15.44702179580694    3.74771373241877   13.62589015176277
H          13.61549392765276    6.54239134639824   17.71699470852615
H           9.94556157440524    2.99217037093251   19.90446612161941
H          10.41174940452558    7.01878106315928   21.23751955851511
H          12.21094158830535    7.38613597269670   19.56716368458536
H          11.33841504013047    2.12043452026005   18.09345603517443
