107
 SCF done       -208.956019960732          0.001398368790
C           8.65402438910040   13.59049537461694    1.30614306392847
C           8.02524455130753   14.55958456897946    2.03754224458676
F           8.33066909655031   15.85075533677634    1.82576174379171
C           7.06218641071475   14.25992583552580    3.01167273902089
C           6.73902125265472   12.95204709441475    3.24357227166552
C           7.35617823615031   11.91182384310688    2.51814837187138
C           8.32904128977443   12.23790479807166    1.52732477452220
C           8.94620882141406   11.21474548686690    0.77214012140394
C           8.60033214577164    9.90965443810107    1.00118546122621
C           7.64542408070650    9.58726295741436    2.01069060979235
C           7.03148224357653   10.55723917821252    2.75099831659856
C           7.48036589996652    8.12476679319211    2.08218861158751
O           6.72826209910877    7.48420816619145    2.77730802524834
C           8.49428746328267    7.57386938240217    1.13342973109501
C           9.01854367822960    8.67710293699911    0.34472522700541
C           9.57961362202816    8.58586515661800   -0.89922463647986
C           9.70622589405292    7.37668415838161   -1.61351960154791
N           9.77043019322786    6.42730100077015   -2.25571381755834
C          10.00021876448157    9.70221252773534   -1.65365668560422
N          10.37462111678319   10.57251845697405   -2.30015559303113
C           8.84217837769010    6.26956635340241    1.17525750787872
C          10.01438278007419    5.68048160770289    0.58910033499175
C          11.28251395571746    6.15749555862569    0.68837361910157
C          12.18885217400577    5.20504608610447    0.06751912220594
C          13.57328889176125    5.39799406839335   -0.04119320488198
N          14.70608518136234    5.56350440546600   -0.11963516134120
C          11.47138664071219    4.13907155596934   -0.38936770293154
C          10.07717008949191    4.38059798357729   -0.10833032478877
C           9.00379340622967    3.68322856889685   -0.58480116667099
C           9.01280302959195    2.39268744940441   -1.31459982924539
C           7.82088755592208    2.29561423104839   -1.97155294703891
C           6.99886025559787    3.43556550113259   -1.62189284688639
C           7.68472740418807    4.23385914982185   -0.74862539194118
C           5.70710763595239    3.66076979464150   -2.12019201886976
N           4.64966648152992    3.82974791874996   -2.53190105568657
C           9.99677583726517    1.36158528729118   -1.28680290538956
C          10.86686014929619    1.12173626491844   -0.27988621995286
C          11.80115136413378    0.03665854111232   -0.28506701639552
N          12.48351387905771   -0.17974398884928    0.83043263921246
N          13.32594226714848   -1.14364594777327    0.98811704388616
C          13.59573649717124   -2.04938802648793    0.05863172944030
C          12.97471542372124   -1.90106942346071   -1.21764401107973
C          12.04911546775188   -0.82278746619013   -1.39839535923531
N          11.54242706393223   -0.80536832097411   -2.62855270361653
S          12.16561089157847   -2.02901360677063   -3.46765398475655
N          13.10367851494876   -2.63911290470248   -2.31656456435454
C          14.52332307606474   -3.10431534937160    0.33523643897962
C          15.23874061492650   -3.79188522465692   -0.60401667446621
C          16.18364308512144   -4.64971836340021    0.07439347029003
C          17.04923713484427   -5.53826482977596   -0.57955432706993
N          17.75986488236560   -6.25156396362271   -1.12972036412096
C          16.08522060537881   -4.44641691063995    1.42602892587648
C          15.02019657849328   -3.50990317360315    1.66330852666293
C          14.50733409903971   -3.20325621869650    2.89521361242572
C          15.18606139485127   -3.45321914718214    4.18404270687356
C          14.26781561360436   -3.27259941458361    5.17307964527372
C          13.00479661030775   -2.88759705863879    4.56809535332935
C          13.15801224041421   -2.81583412258535    3.21143752088209
C          11.82773162315983   -2.64387905041409    5.28847850658420
N          10.86921041662523   -2.44511824060077    5.88777170832306
C          16.58519959449865   -3.71282019963080    4.33118737329351
C          17.11247185460817   -4.51496225045293    5.28383565376607
C          18.50446589196368   -4.77772249130662    5.38629143331523
C          19.08236668683598   -5.86112398548881    5.97161643183690
C          20.51941917705332   -5.84449459540645    6.36299635598909
O          21.34977782059724   -5.03184402208335    6.02923047043416
C          20.68086722639462   -6.99129570200717    7.27772776976753
C          21.78100915905434   -7.36998246298190    7.99163038997331
C          21.70623791771039   -8.51110686666918    8.82119962867154
C          20.48209155047823   -9.23761319224726    8.90144945733425
C          20.41435249349946  -10.37280759672514    9.73230694165598
C          21.52121622620581  -10.75461106946288   10.43859417002425
C          22.73386149145215  -10.05464652098586   10.37200454729978
C          22.81653135857773   -8.94911729703115    9.57198637335969
F          21.45913312072402  -11.83940768292158   11.23051894024094
C          19.35839449570106   -8.82500211468519    8.14790747041051
C          19.45848638098045   -7.72276603769090    7.34252849779970
C          18.50508311671983   -7.10794468307982    6.42387518613845
C          17.39149304232712   -7.71467620433486    5.90028712050454
C          16.70355109598966   -7.22797786230541    4.77043731469202
N          16.16074581688091   -6.89570035630478    3.81435674266642
C          16.88771996181480   -8.95195952857787    6.35187307931290
N          16.42566783019253   -9.94197396080642    6.70310654149594
H           9.38715402921257   13.85759756823887    0.56118518675458
H           6.59820259898549   15.06721771270868    3.55573353459160
H           6.00075557474430   12.69713651933205    3.98877435330294
H           9.68332807302462   11.48711638808690    0.03319738232411
H           6.30300436891965   10.29338020993608    3.50302229062418
H           8.21797569989493    5.62325646795025    1.78584222756353
H          11.59844845844664    7.06569776868401    1.16913803483786
H          11.85482154813902    3.31549124743371   -0.95777824537175
H           7.49834733311295    1.49170238309636   -2.60674511365618
H           7.34969418255039    5.17615884811931   -0.36064061594427
H           9.97115712424309    0.67143940767426   -2.12104544756182
H          10.86973869916041    1.71505021436495    0.62363691439024
H          15.14536989746870   -3.70757978188824   -1.67001343623455
H          16.59102655702769   -5.01088511391261    2.18613737609312
H          14.42921779766265   -3.34501583441304    6.23256379103454
H          12.38046787489432   -2.61896997233034    2.50270541231989
H          17.24270293691033   -3.27487763838777    3.59087107968567
H          16.44968380882552   -5.02296657173372    5.97205715437192
H          19.18743002291302   -4.02575853138166    5.00485881497255
H          22.70003176136149   -6.80773617089670    7.92101324683682
H          19.49843478141391  -10.93821432206782    9.80520453891792
H          23.57364263145276  -10.40325435316533   10.95196748981599
H          23.73985771735413   -8.39388147305693    9.50383643243975
H          18.44284277240092   -9.38917535378971    8.23119010161487
