122
 SCF done       -218.686904003653          0.000604000146
C          13.12830386728615  -12.86368534101531   -9.72731631656760
C          13.33880852200508  -13.59654918711741  -10.86211609032178
F          13.67120887672545  -12.96734068562578  -12.00464233955100
C          13.22094654748055  -14.99260836812646  -10.88861936936544
C          12.87959249684332  -15.64912136056342   -9.73882187430202
C          12.64895055498211  -14.94329223609789   -8.54058970434266
C          12.78060620697246  -13.52418211685548   -8.53303179394743
C          12.57090988854110  -12.79503176968903   -7.33867292351379
C          12.23341077391317  -13.46538808867718   -6.19446324471516
C          12.07719850252958  -14.88163282813284   -6.21469082609470
C          12.28573931014094  -15.61079261151812   -7.34894341818881
C          11.66119076747493  -15.34396520934920   -4.87607119387334
O          11.46910304891947  -16.48088464762876   -4.50838393647094
C          11.46748740417780  -14.10438861339661   -4.07654725697822
C          12.00058937684306  -12.99517595108886   -4.83035194602413
C          12.43239500454682  -11.79279290537069   -4.32619898727391
C          12.46738054409704  -11.48646375433445   -2.95251997742430
N          12.56859971500831  -11.21316895937265   -1.84184218854869
C          12.96168926594982  -10.75349152752915   -5.11571708136363
N          13.36446761566707   -9.86284782762391   -5.71810379223249
C          10.80170642658540  -14.18060152549252   -2.88641827335802
C          10.19318757434380  -13.15259889474536   -2.14086207272102
S           9.90129824391859  -13.40713862157035   -0.41480689054743
C           9.23951999267789  -11.83052952292520   -0.21838757627268
C           9.20151082070484  -11.15968763079001   -1.39448682784921
C           9.72122580392535  -11.90201012254822   -2.50217478299955
C           9.55800414368616  -11.11899876467918   -3.68187808296389
C           9.03342452853330   -9.88772280878984   -3.36221381757750
C           8.77176452948443   -9.83496698099691   -1.87956872556300
O           8.30435026745749   -8.92675243749600   -1.23457755747667
C           8.79916505192102   -8.82856620333990   -4.27557132848066
C           8.41911061310838   -7.58187205930963   -3.89871256996083
C           8.22500337563562   -6.44801543095096   -4.75533612507184
C           8.06849773315225   -6.54812858337492   -6.12397226841097
C           7.90926800056568   -5.39086084292927   -6.91069316573976
C           7.74705244958830   -5.20603739568986   -8.28138828030357
C           7.62758753462342   -6.20323840378210   -9.38196460733382
C           8.72932015674665   -7.29288078390008   -9.36793054385384
N          10.08451871145767   -6.81025744440933   -9.24383165010392
C           6.23482225813310   -6.86573818732696   -9.35561064519234
N           5.20195676887048   -5.87390865320710   -9.60847804399562
C           7.63686052128647   -3.77928380964806   -8.49896152167693
C           7.42682745918788   -3.07027775559960   -9.62286095324102
C           7.29871827500060   -1.58912914360661   -9.59399002634337
C           7.51437252891088   -0.96718542510907   -8.24373244456136
C           7.70584875654818   -1.69448779641929   -7.12997512504698
C           7.75718474977322   -3.10739270481065   -7.20058073203179
C           7.91764013709695   -4.08865359273813   -6.24732990751745
C           8.05630714339848   -4.01475037348459   -4.84121283337726
C           8.19380816790314   -5.15618443841539   -4.12664049710370
C           5.94488827058494   -1.11626672512878  -10.05404231377771
C           4.89671386307382   -1.89454436237823  -10.34086902423406
C           3.61416705428101   -1.37289069659646  -10.69894009006996
S           3.20274277455256    0.32414815229020  -10.47686116293075
C           1.59863855625914    0.09532194970549  -11.08332345869418
C           1.38959748156604   -1.19307580307339  -11.43360125937595
C           2.53013563965690   -2.03790222852162  -11.22136565557478
C           2.21707599244460   -3.35468140360815  -11.68007292318018
C           0.92428793262396   -3.38602076496116  -12.14221708347130
C           0.31635627424308   -2.01405148098088  -12.02784277771891
O          -0.79595163998748   -1.68500639972882  -12.35871343000978
C           0.17354069898480   -4.43076301905152  -12.73824139244751
C           0.47927154220283   -5.75598538363396  -12.76509195098583
C           1.47919808572253   -6.38717435172476  -11.99157140368389
C           2.01373027540418   -7.62463580900480  -12.20983326485890
C           2.69279478113325   -8.36850393241104  -11.12634928717246
O           3.04978476515761   -7.92222532203279  -10.05341195728954
C           2.79028389325536   -9.75872930263846  -11.60602722335742
C           3.25139936690745  -10.86661117896851  -10.95490696855868
C           3.21510162165877  -12.11797976588400  -11.61048173852552
C           2.69475433533734  -12.19807812465895  -12.93511904863140
C           2.65331239399574  -13.44906278142754  -13.57988011047940
C           3.11476571986588  -14.55709814673809  -12.92485942485250
C           3.63215464806767  -14.49919165843628  -11.62367378785384
C           3.67822268892446  -13.29239101258222  -10.98267977792037
F           3.07764879492098  -15.75263501798081  -13.53903249353576
C           2.23370413673319  -11.03229128981230  -13.59060561078050
C           2.28633370710494   -9.83117669668050  -12.93835396432015
C           1.93125893461912   -8.48234134286950  -13.36990231472317
C           1.76133824990033   -8.07282087773541  -14.66734861520040
C           1.76509157979639   -6.71740978363515  -15.05877243038491
N           1.84098150172328   -5.63243831169990  -15.42537752191967
C           1.69600027714774   -8.95416537455099  -15.76557786330364
N           1.61397482226717   -9.63346860028662  -16.68721600979621
H          13.23150574650702  -11.78989382411884   -9.74281635277725
H          13.40132599613223  -15.51771815995352  -11.81314745475899
H          12.78170478447269  -16.72430370147646   -9.73412823664064
H          12.67631225192473  -11.72178398493108   -7.36254277855495
H          12.17470069884642  -16.68468624560635   -7.33851791726463
H          10.69419224021225  -15.18560843256296   -2.48934788409403
H           8.92179700162649  -11.50356749557140    0.75239396692452
H           9.79075924382155  -11.44184982152038   -4.68136614641538
H           8.99951766514511   -9.05319771249776   -5.31686975947704
H           8.29325110885423   -7.39443477176796   -2.84123138277035
H           8.04810391094438   -7.52085840337930   -6.58883721438035
H           7.70518064901425   -5.66522134927307  -10.33266097893406
H           8.66038639299289   -7.85467502414677  -10.30431252797008
H           8.55159552514986   -7.99416343904872   -8.55076458197376
H          10.21332428968278   -6.32726405535950   -8.36095692277075
H          10.30514377510822   -6.16082240887140   -9.99091070027038
H           6.10714728725655   -7.38887986405984   -8.39530277573676
H           6.18206706367789   -7.60910763419516  -10.15589172250467
H           5.11769764314509   -5.26107059046284   -8.80151986845904
H           4.31340913211440   -6.35652614567113   -9.71829347167962
H           7.32331897935425   -3.54293622065428  -10.58970065685159
H           8.04058702754335   -1.17031461916253  -10.29386640773571
H           7.47290960784671    0.11053599543721   -8.20866346738201
H           7.83670651791041   -1.21157776975885   -6.17267872763266
H           8.04582445638914   -3.04933984912295   -4.35753262064663
H           8.29973689894695   -5.12016429063694   -3.05260922114646
H           5.83344950717944   -0.04012286247023  -10.09548545640451
H           4.97475008550206   -2.97379836161508  -10.32591013420511
H           0.93263982305466    0.93348503601056  -11.14256947523703
H           2.92757139904387   -4.16107419262193  -11.71319221330458
H          -0.71768535132076   -4.09493504372055  -13.25366115526625
H          -0.12887652760587   -6.39690008376227  -13.39157038232861
H           1.77385234253164   -5.90343089873350  -11.06616476697248
H           3.63774030928200  -10.79166832462815   -9.94929127474752
H           2.26431217587244  -13.52962728271920  -14.58287757675100
H           3.98165810712069  -15.40648368170631  -11.15708997838157
H           4.07193033112115  -13.22381181381263   -9.97969535403295
H           1.84158194878229  -11.12084545682857  -14.59141092283473
