128
 SCF done       -233.748056551472          0.000632331963
C          18.67431819938227    9.69255732569570  -10.91637276648123
C          19.18663477900371   10.71143409569951  -11.67042258969389
F          20.40254971238566   11.20765368004132  -11.37512945688271
C          18.49159237775598   11.26925514455472  -12.75197183148671
C          17.25538434715685   10.77779933706626  -13.06776407961339
C          16.67924553881487    9.72774136189875  -12.32411248625251
C          17.40104836810423    9.17642964340579  -11.22571516261984
C          16.83807522366691    8.13157675596795  -10.45542564732499
C          15.59666401542091    7.65538174419860  -10.77749444091683
C          14.88918048579669    8.19528161189553  -11.88993077512789
C          15.40470870334278    9.20819416192590  -12.64522501596118
C          13.60766525853663    7.47954993201983  -12.04277439906340
O          12.72768342593486    7.69193800822316  -12.84751004038070
C          13.63890510306445    6.39516724835674  -11.02635935166717
C          14.75961239948940    6.63429358201534  -10.14919899474198
C          14.89357011744091    6.20635355183907   -8.85111787726278
C          13.92228487011945    5.44500340877773   -8.17383274507826
N          13.13779254838021    4.86261911146831   -7.57022614221577
C          15.96832415247129    6.56444217417136   -8.01326085241503
N          16.82688320659362    6.81646143967866   -7.29385691245700
C          12.71191580268180    5.39250458584601  -11.10377232415662
C          12.74621243681084    4.10537858625224  -10.53971988677930
S          11.24012976188797    3.18958859171988  -10.42237031412834
C          12.06199619778147    1.88191956568018   -9.71071067067752
C          13.45707306017352    2.11511878698677   -9.61072916676481
C          13.82810554128530    3.36720373552884  -10.06950424613733
C          14.10590737699987    0.97093076686644   -8.98543431249891
S          15.69725569993873    0.77800118647310   -8.68501014207803
C          13.01330508128990    0.05572095622842   -8.69072102910171
C          11.80445025281113    0.61835864175287   -9.13916382503698
O          10.77074550370770   -0.17581080911275   -8.86586482516191
C          11.28619960376322   -1.26775962770666   -8.22229131836969
C          12.67318108541755   -1.16172997902701   -8.10083232832380
C          10.42767587306837   -2.28742605520616   -7.73336100125884
C           9.08525261951255   -2.28433147377537   -7.90705233508623
C           8.14232550322928   -3.22030084459910   -7.36332363028777
C           6.81091752919984   -3.10003571858519   -7.71120665669854
C           5.84356979152618   -3.94687649185364   -7.14260188990698
C           4.46271811821295   -4.00474588296798   -7.30819907987264
C           3.66682172306433   -3.14080945310284   -8.22971122294086
C           3.15993115757207   -3.91354176103738   -9.46831131103098
N           2.43006320967662   -5.11968199232786   -9.11052213365356
C           2.51996446832819   -2.41290610460321   -7.50938247673423
N           3.07662633219912   -1.56454583645819   -6.47022225591047
C           3.97952555700299   -5.02114516980826   -6.40030112504197
C           2.73969651784956   -5.48065827676383   -6.13342326393604
C           2.48835210672094   -6.46762567473841   -5.05004087606933
C           3.72457312198414   -7.05022151045539   -4.43028952023976
C           4.95903834917731   -6.62083382024541   -4.74540800705606
C           5.13971242985598   -5.58570345344441   -5.69409263366026
C           6.26424252883084   -4.93851999645667   -6.16383718821058
C           7.63725089062825   -5.06755112091580   -5.85035927515574
C           8.53909538170044   -4.24152821800295   -6.43595956691905
C           1.54965940304340   -7.57605848474698   -5.44086175654693
C           1.32108129636553   -7.96415244698284   -6.69840914467192
C           0.44043906289322   -9.03341503795244   -7.06877150619175
S           0.39137138475477   -9.54015124055848   -8.74854982038121
C          -0.77903052551501  -10.72788813007651   -8.38086303642656
C          -1.12400147334597  -10.72463821757222   -7.01577405977532
C          -0.42677711024703   -9.76510183085099   -6.28243336352277
C          -2.13560584482051  -11.74177974177815   -6.75437517842647
S          -2.83886595215105  -12.09115523137716   -5.32305009022121
C          -2.37002501350306  -12.35704410856933   -8.04997820404071
C          -1.54396199157988  -11.74068734844595   -9.00952027959763
O          -1.71180037825701  -12.27346630451560  -10.21018288216052
C          -2.66121251681866  -13.25654822499534  -10.06945349234778
C          -3.08735815714937  -13.33209898956739   -8.73921243281904
C          -3.09106715959204  -14.05760959595152  -11.15070720849378
C          -2.65623156207689  -14.04055047567720  -12.44249629408175
C          -1.74711766965572  -13.11581703000500  -12.99925022022085
C          -1.13991665229634  -13.20938219361659  -14.21987626653032
C          -0.56782796164124  -12.00140008567239  -14.86597063115292
O          -0.35447443739548  -10.92911868451938  -14.34397416556380
C          -0.37120325463125  -12.37512213061027  -16.28142769573223
C           0.03254561060766  -11.59830303277251  -17.32831996068968
C           0.12445552275669  -12.17017882382433  -18.61738494885559
C          -0.21244656057854  -13.54323724712095  -18.79716362873109
C          -0.12466099800104  -14.10585526359116  -20.08522486897476
C           0.28411521636854  -13.32658905352043  -21.13146564157209
C           0.62134748745626  -11.97540002912040  -20.97522134056536
C           0.53969272210460  -11.41293697240481  -19.73174150498627
F           0.37049579453506  -13.86266458808713  -22.36275357541208
C          -0.62236477065817  -14.32652062559629  -17.69272391943626
C          -0.69381363756969  -13.75271904842651  -16.45274235192603
C          -1.03679225794374  -14.31180459227272  -15.14667764223297
C          -1.03543954941511  -15.64701662459149  -14.83016206370754
C          -1.05106369348097  -16.14230790002286  -13.50961015376689
N          -1.00002990460642  -16.59574512701574  -12.45613023072236
C          -0.89575977910405  -16.67787182496403  -15.78112637591234
N          -0.81107369946261  -17.55451958112752  -16.51779773646146
H          19.23590178424486    9.29003775199994  -10.08769039021455
H          18.94597378287273   12.07229839879347  -13.31041360495211
H          16.70061336643479   11.19115485530233  -13.89679409895184
H          17.40906675498524    7.72892937895950   -9.63367812779997
H          14.84703704556914    9.61033091285877  -13.47791045392666
H          11.86353342318847    5.61167849032129  -11.74552204189417
H          14.84249192436251    3.72208875417841  -10.10247451067451
H          13.32045422566921   -1.87814518415239   -7.63806307558531
H          10.92988606553334   -3.07077121690348   -7.18652131839543
H           8.66000899078382   -1.48217417500924   -8.49718625916145
H           6.51018762345845   -2.33486622215371   -8.41243422214039
H           4.33342447215627   -2.35723140908706   -8.60248282805859
H           4.02910403152436   -4.12391843186896  -10.11226227965359
H           2.48133106291300   -3.25964277386309  -10.02181839244583
H           3.08703234222099   -5.83818853500780   -8.82274783138317
H           1.92261017624226   -5.47049032145133   -9.91532086589729
H           1.78477199506383   -3.14185352942347   -7.14221287190335
H           2.01371098618831   -1.76067461473835   -8.22713683161001
H           3.56549546359756   -2.12709574980611   -5.78125447342375
H           2.34426396473599   -1.04737350535400   -5.99760185130517
H           1.87439418657846   -5.14009032639577   -6.68143669071922
H           1.97450208162244   -5.90038969104166   -4.25173678503153
H           3.56921977984798   -7.83330566941109   -3.70442694764970
H           5.82885565831096   -7.05560969314704   -4.27478507891326
H           7.95212705222937   -5.81773047966526   -5.13979809077408
H           9.58412381757769   -4.33328802347447   -6.18667894690085
H           1.08505790094183   -8.09587052795817   -4.61576681423421
H           1.81363056257595   -7.45788439996010   -7.51691358579525
H          -0.55749942477463   -9.60728829153469   -5.22826427350801
H          -3.81875696416349  -14.01299990534310   -8.35485727761046
H          -3.82544661649747  -14.79969849496722  -10.87114982186695
H          -3.06760818208124  -14.79035390405937  -13.10468497202140
H          -1.56588898909622  -12.19210262541275  -12.46329252169232
H           0.28036912606619  -10.55842961893657  -17.17604317824548
H          -0.37338931711267  -15.14391201364682  -20.24159970590188
H           0.93729029492086  -11.41004938423525  -21.83757809303989
H           0.79416387365925  -10.37375247048957  -19.58658026511928
H          -0.87745876535604  -15.36125093101794  -17.85848554511535
