112
 SCF done       -217.130672239161          0.000719603411
C          10.82877816653702    9.79934209763633    3.28265328229128
C          10.39886061001382   11.05048638266638    3.62714381830322
F          11.28838684267172   11.96037991918744    4.05746660052735
C           9.05237033824901   11.43159554453961    3.54408464459899
C           8.13248465901756   10.52210203206525    3.10275406277173
C           8.51987630580055    9.21674407560567    2.73716104735967
C           9.89481221080247    8.84904871599606    2.82852894459258
C          10.30481569117372    7.54319091556889    2.47745718170009
C           9.36664744753643    6.63522427309643    2.06635533737888
C           7.99265030151486    7.00654636635884    1.97647462986486
C           7.57314051493459    8.26610349043490    2.29585373777279
C           7.19026881707893    5.83587937846215    1.57154267866789
O           6.00934014976688    5.78279543910262    1.32516826980615
C           8.14459636665049    4.68871095588325    1.63436385617483
C           9.48947601214562    5.23364991243885    1.69458255704078
C          10.62703193960532    4.59570199491413    1.27819407181952
C          10.60442103153324    3.30099253401255    0.72671668109513
N          10.62668951143764    2.25387337719259    0.25495750514849
C          11.91857151136347    5.15095337039171    1.35293137664283
N          12.99561201624428    5.53806554126375    1.44007179050523
C           7.67661078038687    3.43424969946817    1.84951783399052
C           8.36046405761867    2.29573560224540    2.37490376561352
C           8.07808005188296    0.99859751846563    2.04554543353184
C           9.04092749016937    0.13365907476260    2.68661196425211
C           9.04271466177299   -1.26479953531502    2.60022323069956
N           9.04963430935607   -2.40968586295494    2.52136190332568
C           9.93270971340008    0.90322321960126    3.38855675886363
C           9.54413512726759    2.27778187044120    3.25575511797873
C          10.08173360853253    3.34548532178260    3.93847782157882
C          11.46723972528940    3.48224719014888    4.46491672371642
C          11.51872514492065    4.66015124997102    5.16610146309307
C          10.23593062119428    5.29691773205924    5.09268175174461
C           9.38172548437490    4.51829852085013    4.33966688956933
C           9.91613292914124    6.55158247262173    5.62869696198015
N           9.65555994399365    7.60007520145369    6.01667121720404
C          12.58993970298794    2.66431513733995    4.17903222175709
C          12.72419310566077    1.83805483805690    3.10815800832387
C          13.82959722033138    0.98971923262585    2.86834308080292
O          13.85699164281810    0.33979785986062    1.65736098448062
C          14.94502664227236   -0.43735008240976    1.67900587969602
C          15.65752548550899   -1.36668904775559    0.89872329064078
C          15.38892612461648   -1.72360590193517   -0.51513255263888
O          16.13430790854711   -2.39269624207654   -1.19864962581240
N          14.23314519929138   -1.20440433338313   -0.98214928945888
C          16.73492372753145   -1.74174544942840    1.71323515118422
O          16.70534702225810   -1.09253399662308    2.91567507906193
C          15.62069719062822   -0.30158313018297    2.89747160238545
C          14.91363020186734    0.62137937885976    3.66650035974762
C          17.70459130037705   -2.77453148267555    1.49768117512605
C          17.41116191295529   -3.92660465816470    0.82905391277348
C          18.55073130908819   -4.81811934001306    0.90245763005219
C          18.57185988876483   -6.12179805811541    0.38457046161119
N          18.59203786047714   -7.18627869327670   -0.04226904363629
C          19.55791992533487   -4.19337638083478    1.57547264683381
C          19.11818872151798   -2.86521008377124    1.93945379239396
C          19.94120898145236   -1.91093850983962    2.47018738312321
C          21.38882838946425   -2.09020771987154    2.73770642662761
C          21.78670687595675   -1.07440746837886    3.54808560097689
C          20.66435734668650   -0.17439723311890    3.75043740276480
C          19.58242425703556   -0.64842103440097    3.06805666508376
C          20.71670936106304    0.99824430910634    4.51679239916265
N          20.76447378221303    1.95697468763354    5.14563007848061
C          22.25695951538462   -3.07918955648635    2.16229401169876
C          23.23304639940292   -3.70375179994558    2.85502389162615
C          24.11153570772619   -4.66391054142762    2.28059628755964
C          24.80084341958883   -5.62166361081292    2.95420964906882
C          25.98267392976720   -6.29327168334857    2.34149132890217
O          26.30655371192512   -6.26484123695922    1.17778677676029
C          26.68646535843455   -6.93209047871569    3.47045057455977
C          27.88405280968163   -7.58769252425665    3.47390310506565
C          28.37988915225482   -8.11292841426101    4.68809871696192
C          27.62336841062675   -7.94163903871809    5.88451781446911
C          28.12531640055287   -8.46448360213022    7.09206305209522
C          29.32196035763673   -9.12598795121695    7.09072069707982
C          30.07992215438755   -9.30581027449570    5.92524072903908
C          29.60819380636467   -8.80324012707561    4.74460661788531
F          29.80208747526469   -9.62717762386541    8.24187522641419
C          26.38379951776539   -7.26167870468607    5.85174755778886
C          25.91936455590793   -6.77020107009235    4.66163051959099
C          24.67832052025620   -6.08241077116593    4.32112450399425
C          23.52936710545367   -6.08405576338546    5.06939887458264
C          22.27214167853043   -5.69042805469164    4.56712205752529
N          21.22323854200957   -5.43329222025973    4.17698308355472
C          23.45152384835985   -6.58856403009943    6.38440021202901
N          23.34721562626753   -6.96121389230600    7.46474567728370
H          11.87283002243960    9.53983749910003    3.36019167575403
H           8.77163609668174   12.43203008699713    3.83285515486056
H           7.08959456674267   10.79211009999126    3.03291374844211
H          11.34765415579676    7.28016172380208    2.56736929434573
H           6.52898256460994    8.53130709270574    2.22416153343623
H           6.62035688078806    3.29073400645730    1.64131916334201
H           7.30461355719233    0.65936680709937    1.38214287585533
H          10.70375574994134    0.54319421632827    4.04241412401255
H          12.37928660883636    5.07833055730225    5.65255469423314
H           8.33231037857656    4.69725233784306    4.20527012334661
H          13.43223952176436    2.78962669691586    4.84699334985705
H          11.96914864479279    1.80752674988778    2.33598336377748
H          13.63010595521928   -0.62298026061320   -0.42684964836514
H          13.99039304802127   -1.37427264598953   -1.94395652565381
H          15.12841975064172    0.97362015432774    4.65306849950073
H          16.48388998264794   -4.17685106194631    0.35318040378561
H          20.49302410146205   -4.63137924779543    1.86283898115824
H          22.77620959979403   -0.89580191765546    3.92576326523885
H          18.61510961000012   -0.19400974763976    3.04893568422918
H          22.09815347901413   -3.33001965016378    1.12109582120679
H          23.33560619772338   -3.50092285337382    3.91331828345343
H          24.30055849303535   -4.60064120956101    1.21425934097302
H          28.44605910201527   -7.70688153437159    2.55975546392402
H          27.56673110048676   -8.34793808008065    8.00762765991265
H          31.01696819390859   -9.83620568421548    5.98555810397048
H          30.17415327582172   -8.92970193346064    3.83405396867579
H          25.83504417793004   -7.13935142048619    6.77228899858551
