108
 SCF done       -217.236471839299          0.000439120946
C           4.42531372476080    5.16454545912660   -8.15582710874937
C           3.81119148580043    6.19687789377258   -8.80906509680687
F           3.04168431467654    5.93787001022421   -9.87933729300717
C           3.95215663821984    7.53219515243021   -8.40494132756699
C           4.73181325940302    7.81660874248079   -7.31883697576361
C           5.38911810322493    6.79092865847582   -6.60816063587367
C           5.23075095735867    5.43867616143128   -7.03333724103767
C           5.87050495425868    4.39184984259066   -6.33078478180073
C           6.64405532289004    4.68948966118711   -5.24064614440728
C           6.81326851924163    6.04525554940314   -4.83073706931765
C           6.20157206506556    7.07424955759418   -5.48844808342632
C           7.71456786555604    6.09801098406515   -3.66652725366285
O           8.05004369954513    7.05901110525077   -3.01585165178968
C           8.19094510803618    4.69446638953329   -3.48295727951730
C           7.37437526137385    3.82912892001182   -4.31732118644961
C           7.15464234397662    2.49371972342081   -4.11916819597322
C           6.28973254933370    1.71516581512671   -4.91725698915321
N           5.60944123411159    1.04391767454357   -5.55177581416791
C           7.69851404505334    1.77054916467642   -3.03735652222652
N           8.07636979691473    1.16019093440714   -2.14161417003890
C           9.27917205825477    4.43542841476722   -2.72423388260509
C          10.07506787186376    3.24236007587912   -2.74066691653448
C          10.48778294706976    2.57477364521102   -3.85011449861025
C          11.41124512162147    1.52717348341431   -3.44735453848803
C          12.00139412743304    0.62556426470105   -4.34495782919981
N          12.47782393759561   -0.09564971585387   -5.09911206440537
C          11.58319754805673    1.57719094290236   -2.09505964716058
C          10.74469978924107    2.62870424774155   -1.57344137272141
C          10.47076749691621    2.91088809012579   -0.26640269785269
C          11.17804148909930    2.42345261623113    0.94185249014436
C          10.42508070464885    2.77416324251413    2.02002485756876
C           9.25041847327873    3.49529273077780    1.55786655588259
C           9.30438420601484    3.61813764207658    0.19991317849989
C           8.24246860945777    3.98082050099294    2.40395569261715
N           7.42639701629606    4.37760725154493    3.10577112353175
C          12.47481967117787    1.81455483952722    0.94061406910412
C          12.97060092555907    1.11945099066717    1.98319487187827
C          14.27308556688103    0.50025443717523    2.06208968549214
C          14.75641752416730    0.09427978942929    3.31781100115837
F          13.99333807573665    0.29969499855127    4.39900883759835
C          15.99493185829136   -0.49858251046552    3.48064980058450
F          16.38544303807437   -0.87437582514019    4.70559570285524
C          16.83691803050210   -0.73600052457561    2.39038474712259
C          16.34816012365949   -0.37689515368047    1.13370107072301
C          15.11353137246495    0.23056342459237    0.97276952008279
F          14.72446136153350    0.53692727384084   -0.27488682798167
F          17.10862617749726   -0.59872944840785    0.05233900085607
C          18.13378554387912   -1.38403363309765    2.54306514659478
C          18.52393935844038   -2.51189633752441    1.90249231558013
C          19.81385305470531   -2.91818802197093    2.43946885696714
C          20.53565334365880   -4.04307109268809    2.02223784140082
N          21.11920013206360   -4.98509278163187    1.72238027516238
C          20.16826860699269   -2.06076342944598    3.44134333590633
C          19.14816102889817   -1.04809498389929    3.55640891081457
C          19.11547271279605    0.04470314312157    4.38753394042057
C          19.73514792231101    0.19483538119341    5.73266107987707
C          19.38473634606990    1.42734258161105    6.20797287271041
C          18.59737772438571    2.10189009402718    5.20463169544817
C          18.39453337026333    1.25633448042527    4.14290308840812
C          18.11833340029833    3.41545419260260    5.31468897429517
N          17.72929237521631    4.49120158086012    5.40202806800912
C          20.32314044092707   -0.89494631155196    6.42076251265394
C          20.54171778336721   -1.02424260074836    7.75504645811239
C          21.02097535196278   -2.23802771169760    8.31840111000616
C          20.96079726152527   -3.49212400382161    7.78589329464783
C          21.91133447487954   -4.53756587541988    8.27702338480183
O          22.53543396857152   -4.51345673096350    9.31077623610468
C          21.96941700245809   -5.53597974968804    7.19421453925137
C          22.79891226631900   -6.61235003864921    7.05842841775956
C          22.71443501833323   -7.40506649598521    5.89201263767203
C          21.77028594885138   -7.06371724020057    4.87867133328368
C          21.71366503412912   -7.83563123995471    3.70267158354071
C          22.55331772389091   -8.90661932298470    3.56631943010158
C          23.47703723924744   -9.26929290626220    4.55725269323646
C          23.55304166150180   -8.52222175289754    5.69966445489112
F          22.50319442463241   -9.65180417695412    2.45052156388626
C          20.90236058509042   -5.96224924549890    5.05904728607750
C          21.00051451368711   -5.21169947824992    6.19909372751578
C          20.24870611168908   -4.04640523652378    6.64972484709114
C          18.99787997881042   -3.68893600915095    6.21133460858109
C          18.21325094302593   -2.71293617078920    6.86295810441189
N          17.54218633650380   -1.95291659207011    7.39887297523638
C          18.36389603102727   -4.23429318407183    5.08108349582912
N          17.83290240869857   -4.57905687603022    4.12226410717842
H           4.29134113982591    4.14842065477112   -8.49244134250019
H           3.44295356402464    8.30436714837405   -8.95942630125035
H           4.85527352910431    8.83704938516756   -6.98897842806181
H           5.74070281005576    3.37871571299079   -6.67741406630028
H           6.33601473760302    8.09292442186347   -5.15689383570265
H           9.63997322405936    5.25747377189205   -2.11271276039974
H          10.23040542361612    2.79047879819445   -4.87127012217005
H          12.15167042176973    0.87901610344872   -1.51352541065216
H          10.64774147085148    2.60850721327957    3.05708814374962
H           8.55281954581353    4.05858809281386   -0.42598066476976
H          13.06920081820661    1.97484915960576    0.05558452194701
H          12.36525754900214    1.00078350040001    2.87070134632721
H          17.98409082719487   -3.05489472762823    1.15078701385025
H          21.11782991376868   -2.06143218677681    3.94222623959387
H          19.63384750166003    1.85130743188505    7.16170559301755
H          17.87780912318699    1.50101501372971    3.23428676417003
H          20.57448063830674   -1.74651223824672    5.81051177858259
H          20.38774758646439   -0.19074779837750    8.42436855468302
H          21.55221947620578   -2.16906214884275    9.26244947595462
H          23.51632490564865   -6.85235310935993    7.82881739175418
H          21.02371328794494   -7.57357606553805    2.91634018315928
H          24.11131367889682  -10.12628487092203    4.39436035148363
H          24.26193397260711   -8.77840302360987    6.47256071687959
H          20.19550105395805   -5.72922958591024    4.27893854330160
