140
 SCF done       -256.640072019462          0.000410229466
C           0.87501852861833    2.59056654416183   -1.98736184622899
C          -0.40067476486029    2.98337895441994   -2.28258695735373
F          -1.28664066087109    3.16065335872566   -1.28507676258492
C          -0.83168747726165    3.21197664460831   -3.59623598078941
C           0.05425780239579    3.03642778727483   -4.62277798722359
C           1.38193620259311    2.63170431667034   -4.37585268816679
C           1.80123865757189    2.40632451490604   -3.03223038154836
C           3.13054390451257    2.00806269700902   -2.75844466076034
C           4.00595741738647    1.83684284441446   -3.79608801036117
C           3.57722063344157    2.04808367008777   -5.13883152488139
C           2.30335742973424    2.44113480528538   -5.43044680800029
C           4.69543736375866    1.76057257814315   -6.05980313274065
O           4.72646685255960    1.89779385276654   -7.26081980465836
C           5.77604815779206    1.21525201329489   -5.19439293126908
C           5.41793389719594    1.46929718887337   -3.81564903514214
C           6.28736670221582    1.60886946466981   -2.76316599357541
C           7.68806291349581    1.52034465832281   -2.88742073212699
N           8.83533744678387    1.51095639985927   -2.95315695579793
C           5.88623111423682    1.94009757100438   -1.45408258352383
N           5.61275478264834    2.18727650146615   -0.36665686340087
C           6.82308994150951    0.54043697104875   -5.74253916244081
C           7.70191880281506   -0.34860466347619   -5.07068226515187
S           7.14913637915062   -1.30643070421716   -3.72622745277904
C           8.72710995221103   -1.99461770346547   -3.48305436447276
C           9.63774417555733   -1.46232801862914   -4.37869686968985
C           9.04451619253149   -0.59021265971499   -5.31030443957560
C           9.80701522924001    0.00801592827608   -6.45889534909765
C           9.59033900000845   -0.89101041463378   -7.67667695502783
F           8.29987692886412   -1.01613956075160   -8.01513332804544
F          10.22103746645501   -0.42385179546942   -8.76511209508315
F          10.04927490835771   -2.13697496569864   -7.47859439533254
C          11.32464950851326    0.11838497767220   -6.19774335360373
C          11.67063057321893   -0.16088700574858   -4.74318424671532
C          11.14604857273838   -1.54529629242281   -4.32362854084476
O          11.66873481879622   -1.97086535584788   -3.08571048277688
C          11.47953918121472   -1.09555896208784   -1.99330297233153
C           8.88548179772585   -3.01286018926087   -2.47578081926633
C           9.83714123633525   -3.99585193624807   -2.61201851110984
C           9.96381776025158   -4.99231838340383   -1.62435779618355
C          10.84809339092535   -6.05512964850164   -1.50701176325867
C          12.01900169922943   -6.38758253014885   -2.36666662005921
C          11.60393493658049   -6.71667034723699   -3.81369788248433
N          12.59463318873525   -7.59946756017803   -4.40117346092140
C          13.05078506814391   -5.24287133644455   -2.31331990213610
N          14.27017063440412   -5.61941663246445   -3.01473917284462
C          10.45888827178721   -6.78641767069661   -0.32379745520415
C          10.92374704422803   -7.93531165283463    0.19829690680117
C          10.30838401902703   -8.54832048239258    1.41041021840922
C           9.20708010102685   -7.74114849606441    2.02744918140317
C           8.75268440204169   -6.59446783838276    1.48869696584092
C           9.32174918762929   -6.08850909899457    0.29595626347252
C           9.03321532850937   -5.00003763554329   -0.50054954185187
C           8.05184862434145   -3.98567354631961   -0.40220033744730
C           7.98946764071597   -3.02444953338400   -1.35537201775406
C          11.37314018789355   -8.81446475318171    2.43679311730616
C          11.67687441962960  -10.03405348761755    2.88929640293299
C          12.70406956018996  -10.31545947877051    3.84756095946164
S          13.76235043635938   -9.06270294763856    4.40269706628199
C          14.72548487112237  -10.19727151313135    5.31786494137566
C          14.20981788461205  -11.47594293142341    5.19843209453586
C          13.06285871009270  -11.54031395313089    4.38592539547676
C          12.27259630587669  -12.80798142659325    4.19936114026989
C          10.98061653509203  -12.71098527359438    5.01444195714592
F          11.22069006465605  -12.50480377368013    6.31687508898650
F          10.16328107366086  -11.72318141794342    4.62190961687392
F          10.25790251465660  -13.83980102864842    4.93115608899248
C          13.01860718582556  -14.07461094403074    4.67075549001223
C          14.52245911848203  -13.86306056263012    4.75480293318105
C          14.82890999941416  -12.73440202797631    5.75182161379266
O          16.19055911029302  -12.61853083949867    6.08588779336439
C          17.10103465094472  -12.54197933557252    5.00642772088687
C          15.80683131858421   -9.78496082629270    6.13733984949072
C          16.54596938472201   -8.64666153370537    6.06312448136578
C          17.29948328484279   -8.18060464207944    7.26156096246870
O          17.55931621252913   -8.82307169898125    8.25133824013546
C          17.59874504504612   -6.75938206136211    6.99533720736573
C          18.16272943910970   -5.83211638113040    7.82271521976110
C          18.32868164568046   -4.50698970211463    7.36136796262121
C          17.89930058187194   -4.16576944354250    6.04531373525528
C          18.05935653963057   -2.84002743339762    5.59745993228147
C          18.62486111626458   -1.91386273248632    6.42905312194111
C          19.05643299483105   -2.23050636804711    7.72438472604425
C          18.90668467752013   -3.51208275231178    8.17619133913237
F          18.77913233417169   -0.64781688713876    6.00174854637578
C          17.32736963806583   -5.14968760066222    5.20536949967573
C          17.18489038010323   -6.42820062965391    5.67226848311238
C          16.68043996165922   -7.63867099389422    5.03295773767933
C          16.61771021085699   -7.85653709679031    3.68035648718091
C          16.43720924247098   -9.13824384761687    3.12500308731457
N          16.35169021780860  -10.18127662352337    2.65096928677697
C          16.80635357901209   -6.85558547019461    2.70829740134252
N          16.92202905305950   -6.07477152398526    1.87446660257608
H           1.17317605808665    2.42705370714170   -0.96355086939445
H          -1.85062845192269    3.52042966540010   -3.76845773646966
H          -0.25455002940582    3.20610251052807   -5.64327089177932
H           3.42111973330434    1.83645450805612   -1.73396576556816
H           2.00014397532742    2.60417569838199   -6.45377774058671
H           6.94094357319604    0.64847404735551   -6.81513699126226
H           9.38460916642547    0.98341542700606   -6.71515156282441
H          11.66604245461694    1.11656537276024   -6.47093284417926
H          11.85596521317566   -0.59639892023321   -6.83051146936263
H          11.21886734260467    0.60067149014267   -4.10514630787216
H          12.75306583793268   -0.13700077926008   -4.61259096143012
H          11.50690917651791   -2.29903655874685   -5.03788507793585
H          11.62851461495358   -1.69901142394734   -1.09919452106193
H          10.47327428478303   -0.67014140340021   -1.97542983561090
H          12.21094055086722   -0.28168293029388   -2.00566925279227
H          10.46254247967526   -4.02581158018829   -3.48632831581453
H          12.50117619730809   -7.28954887339716   -1.97655706388068
H          11.46718412709359   -5.78011067533480   -4.37559291233967
H          10.64417862263468   -7.24499337131254   -3.80137858488571
H          13.49271889637560   -7.12242967222986   -4.38613867146898
H          12.35730918249454   -7.80299442530416   -5.36624862420641
H          13.22759501732730   -4.99172943791387   -1.25334709593279
H          12.64278658678836   -4.35255184651048   -2.79649800842150
H          14.75782080801008   -6.34494612986599   -2.49714563997211
H          14.89184252980856   -4.82072544925142   -3.08035185085433
H          11.75037040494149   -8.47523977922669   -0.24301684743883
H           9.88985813044795   -9.52042648545769    1.10588050397584
H           8.78722041299127   -8.14431228373542    2.93600317999200
H           7.94236587786482   -6.05236441846777    1.95411812947803
H           7.36413518583266   -3.98618207201766    0.43026378218229
H           7.25349967916856   -2.23564249701184   -1.28937314482814
H          11.88673070524168   -7.94099290854864    2.81447302055347
H          11.13953706025496  -10.88995747029973    2.50439964972356
H          11.97337130772531  -12.90812104928126    3.15088384968241
H          12.79460091215138  -14.89675447282973    3.99035280773719
H          12.65560379995985  -14.35963151963861    5.66123892124193
H          14.91931792900003  -13.59936155489959    3.77286008485467
H          15.00280775876183  -14.78127701471269    5.09386588858592
H          14.34731866033613  -12.96460589302879    6.71398926743620
H          18.03861257571919  -12.19482367485058    5.43701735914980
H          16.77451417009726  -11.83588370529731    4.23820251008992
H          17.26146090865487  -13.52387851938333    4.55089909250371
H          16.02671215745077  -10.43336760016681    6.97961888626730
H          18.47902003220247   -6.10565684612466    8.81811035127688
H          17.74176850028687   -2.56076968408068    4.60504409749810
H          19.49570031168971   -1.45790182067023    8.33519301561667
H          19.23072989232660   -3.78042197464543    9.17040043082239
H          17.00452333169141   -4.86604538048412    4.21582408549099
