130
 SCF done       -235.490575689907          0.000655100922
C          12.18575499269842   -7.29702780448396    9.55309822602095
C          12.20679140083913   -8.45095330285080   10.28603187989814
F          12.19314010453941   -8.38267997146395   11.63084224107458
C          12.24354243672891   -9.71869837405266    9.69094110101946
C          12.25847844323308   -9.80802737642470    8.32645898610068
C          12.23895599486425   -8.65075542569841    7.52207714637797
C          12.20435962997615   -7.37053998267540    8.14704648607944
C          12.19875830333912   -6.19363592024081    7.36110952387429
C          12.22476655663594   -6.29920877729327    5.99812322992504
C          12.23823870495685   -7.58166377347683    5.37775529108450
C          12.25102008359005   -8.73226963011943    6.11065366747007
C          12.22741430968305   -7.40993858347209    3.91142987755113
O          12.27920114172031   -8.26975759798733    3.06040177323515
C          12.09057033441099   -5.94553399383325    3.69025045365157
C          12.27046586591178   -5.28108030373323    4.95160528717665
C          12.65898872498869   -3.97437481745733    5.13744934040609
C          13.01035287138716   -3.11225783473907    4.08202491747620
N          13.34391786250521   -2.39441035762469    3.24940225072709
C          12.89503515006692   -3.39242540374343    6.39860901750744
N          13.09713943686379   -2.85981386334744    7.39535147285706
C          11.79518462294600   -5.48350210426561    2.43581491761657
C          11.24680575505980   -4.24997442783438    2.05158079887289
S          11.41014029331400   -3.71948905819936    0.38921672018876
C          10.54521628008542   -2.24092460522821    0.65101973699188
C          10.09636502650168   -2.17806410396781    1.97021463865409
C          10.50525972108498   -3.30289184141521    2.74403282013098
S           9.92341326359166   -3.23026125389955    4.36875901285984
C           9.18543052719459   -1.67934021964020    4.03104975816790
C           8.48133058530059   -1.03056231652769    5.13860679767520
O           8.35602328473079   -1.52875670970929    6.23070274432397
O           7.98565633818575    0.16045162628947    4.77977325709437
C           7.29760429150482    0.89470950969804    5.79510864958119
C           8.26852243847950    1.63704466173001    6.70152218390047
C           9.36783076093803   -1.24814803497453    2.75316776172115
C          10.42690776379391   -1.27763548981392   -0.40771137230675
C          11.37555220606140   -1.24694607746933   -1.40647159897108
C          11.32595058930442   -0.25461756668785   -2.40112195364091
C          12.18397222542592    0.01967553036125   -3.45695723216273
C          13.38340476652939   -0.78144289981436   -3.83762786228748
C          13.47236077252868   -1.07321956550838   -5.34793940277482
N          12.14857243109420   -1.21069399689265   -5.94496931723902
C          14.66945206226505   -0.08697847468371   -3.34952185148890
N          15.83009784877304   -0.89418590443764   -3.68223140215553
C          11.66826590701229    1.19564809688056   -4.11152271811498
C          12.13350917867880    1.91795303327972   -5.14625034220665
C          11.38044687276057    3.07437563606086   -5.69553741303095
C          10.13268422043000    3.42987144234933   -4.94119781666808
C           9.70268129964021    2.72177683368428   -3.88163356140884
C          10.43171181037597    1.59786770812772   -3.42382168196744
C          10.24213670902601    0.72021679150857   -2.37689720749102
C           9.24626022423806    0.62140116307632   -1.37686740090004
C           9.33994458377351   -0.33967795562509   -0.42460980471433
C          10.97289139115446    2.80097754627268   -7.12012188144627
C          10.83795050768207    1.57029798551140   -7.63023523224681
C          10.42778191625544    1.31549239582883   -8.97202688463585
S          10.17098656464172    2.57702501425780  -10.14182037862171
C           9.75016364836837    1.46080498817783  -11.42210336898956
C           9.82150182465695    0.14977506834993  -10.93368783457282
C          10.19511544801523    0.09042804139223   -9.56499929973275
S          10.27690602636165   -1.53737940461465   -8.97592443975012
C           9.81043297666922   -2.11879363012384  -10.55469509688148
C           9.70642097038392   -3.57335784006493  -10.72149038883022
O           9.97127004330032   -4.36141835956088   -9.84632916624347
O           9.28143408297133   -3.90013795744334  -11.94471078813000
C           9.15924398031437   -5.29580600366342  -12.23065360899149
C          10.49349828046104   -5.89482031598140  -12.65058374306149
C           9.60257723720820   -1.13435300361260  -11.47759964714402
C           9.53425191900591    1.82787648381024  -12.75750768467404
C           9.39190467267039    3.06579430078377  -13.32188137195223
C           9.73595679357415    3.24711272491712  -14.75620400634807
O           9.88278913399850    2.37601077714536  -15.58408309573102
C           9.92718337563952    4.70214809563256  -14.92283858207258
C          10.38144464726394    5.39184797932884  -16.00909931418024
C          10.52760854402784    6.79513061408322  -15.92308354417777
C          10.19814643804598    7.45912412939232  -14.70559131237081
C          10.35852509987000    8.85575853216535  -14.62397960762738
C          10.82266873002445    9.54305782014979  -15.71091922158231
C          11.14916151028192    8.90940983388744  -16.91733530396788
C          10.99974630203089    7.55371231024478  -17.01358395044099
F          10.97814708532704   10.87747950985908  -15.63346874171119
C           9.71604345766441    6.72008894136838  -13.59947099546504
C           9.58026907111743    5.36377785956957  -13.70916607101957
C           9.09164449054919    4.36159801694253  -12.76563603915035
C           8.25900666634698    4.61064613866559  -11.70331026545498
C           7.55528801669441    3.58965250299450  -11.03415856952954
N           6.93215045478355    2.78192185390168  -10.50720441938359
C           7.94435941625136    5.90145839134690  -11.23900654155435
N           7.68558054237613    6.93343998284401  -10.80660636508706
H          12.16024188549485   -6.33726506478226   10.04501223483306
H          12.25907579624715  -10.59438742076844   10.32027689550620
H          12.28618343271252  -10.77394619638603    7.84476152183760
H          12.16507669120719   -5.23721851492728    7.85822969834706
H          12.27263742886649   -9.69491894290462    5.62200056300387
H          11.95601226921880   -6.19977241733981    1.63583210956583
H           6.68774928206356    0.19995135189863    6.38192671904714
H           6.65416494967018    1.58843786392748    5.25012722825856
H           8.88928919185387    0.92675288674095    7.24207817895373
H           7.71167485589610    2.23373030274055    7.41812701510695
H           8.90861072720738    2.29068195477349    6.11366266416007
H           9.00110545078110   -0.29824703721366    2.41299093055181
H          12.18805876786660   -1.95931535641506   -1.39038329454589
H          13.31399853823354   -1.74326860146792   -3.31669050561382
H          14.10233288675343   -1.96523867483318   -5.47633378639914
H          13.98075998762724   -0.25240379714475   -5.85932449702106
H          11.60527670824349   -1.89545582908320   -5.42789835427345
H          12.23953472009286   -1.55983624673207   -6.89414448089530
H          14.56532431237559    0.11018383716923   -2.26874936058737
H          14.77509158297605    0.87643699389820   -3.85560444990524
H          15.80196610291148   -1.77327985278548   -3.17550421254386
H          16.68227288726874   -0.41421123110912   -3.41522355001362
H          13.05322425257055    1.66871059147421   -5.65196831392241
H          12.04503112708956    3.95171054638521   -5.70775654626724
H           9.58128198802220    4.28038648313090   -5.31098113988321
H           8.79837609870447    3.00623497091108   -3.36341100543604
H           8.41649149193825    1.31255394725020   -1.38178776313657
H           8.56736792664211   -0.44250087865231    0.31953511989937
H          10.73556472756995    3.66883082854374   -7.72192555987732
H          11.04496096311355    0.69128950119307   -7.02955419336236
H           8.42762724519950   -5.35333720277859  -13.03883637009996
H           8.77697542858412   -5.80673074829722  -11.34101150998784
H          10.89670689294185   -5.35555192162055  -13.50445427615998
H          10.35331539267610   -6.93690267950822  -12.92225081676041
H          11.20250053366617   -5.83824694929799  -11.82812330322624
H           9.30716910842895   -1.33572442258689  -12.49042423491374
H           9.60234433775454    1.01178969806476  -13.47119488374849
H          10.63018589352562    4.87451541457487  -16.92356265692209
H          10.11320081468439    9.37731734240253  -13.71203216160331
H          11.51062541219556    9.50348913508040  -17.74162348187633
H          11.24492627504397    7.04315039065911  -17.93273809347540
H           9.47796735378950    7.24431829885803  -12.68723333692112
