130
 SCF done       -235.380237130796          0.000671657992
C           9.11619060930339   -2.90660076816409   15.83910224147594
C           9.36699988690997   -2.85342575053131   17.18213600671453
F           8.46985035204488   -3.36694470761987   18.04469691712908
C          10.53251359544250   -2.27998280062368   17.70709139508089
C          11.45411896256346   -1.75108793545103   16.84640730986987
C          11.24545556824216   -1.77745310576558   15.45268225175259
C          10.05594041993898   -2.36957274535125   14.93834359168644
C           9.82968931025489   -2.42011434759682   13.54196550939833
C          10.76123413620800   -1.89124863561808   12.69148629061782
C          11.93559244187115   -1.27849657568052   13.21377057399191
C          12.18555442938241   -1.22432220984681   14.55383575418112
C          12.73648326505184   -0.74691355410221   12.09650408041034
O          13.81759365876927   -0.20352883712865   12.14774865205884
C          11.91698606017450   -0.97722122554021   10.87432420432978
C          10.81065978264707   -1.82210734458628   11.23041082897664
C          10.05241201159883   -2.60676439871020   10.39156971351093
C           9.03464809987818   -3.47603785393386   10.83475617955245
N           8.19174115501894   -4.19697767167039   11.13077252208189
C          10.23495388245026   -2.71410151116233    9.00290092311281
N          10.32730936378257   -2.83914614607212    7.86367077887219
C          12.33058413472848   -0.37236246804630    9.71583117783043
C          11.66817178575379   -0.10303595816276    8.51200670156053
S          12.65300753986097    0.23584190614228    7.10724786734877
C          11.26341458316264    0.40011659362606    6.09190258332492
C          10.09052622318865    0.25516473545463    6.82692368536754
C          10.30989151085206    0.01254425145544    8.19584010620024
S           9.08927405395610    0.02374101378657    9.45554167854650
C           7.66395087861465    0.78259702178901    8.59761446023553
C           7.07616211201584   -0.29627112930765    7.72088388388781
O           6.06004149030694   -0.87815639427303    7.98382610690034
C           7.93145600588046   -0.64115115046711    6.51414451954041
O           8.88625096529741    0.34769095075140    6.18667020823181
C          11.32966017637512    0.64921890986220    4.69708923354821
C          12.48487116272448    0.84615652234285    4.02292449569865
C          12.63085706896958    1.11763072389689    2.62145898710888
C          13.88407202527650    1.42449293066758    2.13382155158534
C          14.06119973935278    1.74731898118560    0.77541672015431
C          15.19349704879049    2.12861992977847    0.06817580926388
C          16.59110072130652    2.16727898612610    0.59057043967394
C          17.55904899234946    1.33678406951513   -0.29095288164593
N          17.14560528608029   -0.02323754102316   -0.55845058663941
C          17.09047763008253    3.61525602659295    0.73378303067286
N          16.35538687909286    4.26492120163513    1.80367733447250
C          14.76677955581576    2.38276000932309   -1.29083543820046
C          15.42443403538749    2.83218415271873   -2.37613086474267
C          14.78430586013786    2.88718864803958   -3.71695871149240
C          13.31170527505749    2.60186298845139   -3.71976497521069
C          12.64779990359789    2.22778536584465   -2.61249171093378
C          13.32616289149004    2.09049686470251   -1.37638805603242
C          12.90538659999663    1.73442328801085   -0.11375299601737
C          11.63569113829645    1.38563936512306    0.40719849197110
C          11.50819920807948    1.09255018638455    1.72352733142208
C          15.43646916790705    1.88183873323170   -4.64111855302199
C          16.09602506035640    0.81005877315143   -4.19092649817623
C          16.74370817625313   -0.19811826965699   -4.97388699841537
S          17.16635730381133   -1.67289045990823   -4.16912818677125
C          17.90414635907057   -2.32865925334593   -5.59677798980201
C          17.78470852913470   -1.42982373179387   -6.65729921456987
C          17.15133501833167   -0.22113238841186   -6.29640446141635
S          16.91271088660579    1.11379660603950   -7.42294247245322
C          18.63792251500182    1.32967513538852   -8.01359489178310
C          18.96509339025311    0.28039964469458   -9.04226816434457
O          18.96385837321346    0.51013590767794  -10.22111051418796
C          19.29409954475080   -1.10926024024977   -8.49101896012516
O          18.18976563710013   -1.77987875008708   -7.90975832515730
C          18.51056638985797   -3.60392597683617   -5.71229353434274
C          18.74931015338123   -4.52986331270276   -4.74583705194301
C          18.55625956321439   -4.36692568196520   -3.35420458150590
C          18.59313909636626   -5.35067003139821   -2.41094966322225
C          18.80954525495414   -5.01287429115908   -0.97868254045355
O          18.71583351682280   -3.92025639133009   -0.46753038693080
C          19.21343570698854   -6.28169694669697   -0.34053843566592
C          19.63355048073720   -6.50423490152012    0.93891941038817
C          20.00887426127954   -7.81035693497780    1.32515497882739
C          19.94722594001978   -8.86565471101151    0.36906539618583
C          20.33341929026596  -10.16312485091276    0.75727534143744
C          20.75316881058156  -10.38296451105456    2.03970266970379
C          20.81683165947739   -9.35987845716926    2.99545853033011
C          20.44804610849559   -8.09395345975836    2.63463470739455
F          21.12260203426742  -11.62149702954885    2.41236566237783
C          19.49852573917545   -8.60850825289157   -0.94756323347667
C          19.13014239177395   -7.33717213706592   -1.29459401785548
C          18.60090400573699   -6.79047879796024   -2.54179173680829
C          18.02519696532031   -7.51899613077081   -3.55001632649056
C          17.24967705418867   -6.95172507730635   -4.58358543777153
N          16.56246149468943   -6.54522549754658   -5.40791233544695
C          18.04229010498096   -8.92757894904175   -3.60589677383831
N          18.05084525645832  -10.07073117334024   -3.70963893939038
H           8.20928931746860   -3.35977922260260   15.47032518662410
H          10.67686334449722   -2.26790148760269   18.77579581991164
H          12.35989617343871   -1.30305735706718   17.22662490700457
H           8.91715344189353   -2.86893785632666   13.18382226354221
H          13.08854741800258   -0.76357945689051   14.92551572986488
H          13.35277155134873   -0.00429654481578    9.76180922499303
H           8.00324732341497    1.65012936815968    8.03436534029625
H           6.96669758766932    1.07016216059615    9.38284419521323
H           7.28255146102691   -0.74934622990118    5.64017629101304
H           8.41512332426721   -1.61239680290054    6.70087282696156
H          10.36794528725575    0.68550149752798    4.20653653249337
H          13.40665473937745    0.82246885048452    4.59365617706648
H          14.73019772330458    1.45068811891005    2.80535993494918
H          16.58954513207446    1.73373923364184    1.59581201290899
H          18.53626699118552    1.30151499002797    0.19605498591291
H          17.68960197245966    1.83370552989966   -1.25592587367850
H          17.22497241169097   -0.60146865508609    0.26992070669044
H          16.17482240304530   -0.04903597095603   -0.85529576672417
H          17.00085234296170    4.13070102585339   -0.23744103408883
H          18.14744571885150    3.60578332699189    1.01589063695759
H          15.36567199737999    4.29407967171315    1.57967541792026
H          16.67738380735445    5.21684242162799    1.93597770345946
H          16.46353393350070    3.12719503760416   -2.34485418973049
H          14.95398987334288    3.88247074827989   -4.15309408292419
H          12.81433740935568    2.68913751418737   -4.67311735852055
H          11.58699623849016    2.02650244688783   -2.64936490381182
H          10.78054052696627    1.36230218416898   -0.25229489986309
H          10.54108917983312    0.82625355853489    2.11898538125574
H          15.29408866017861    2.05159564671898   -5.69695904489113
H          16.16522405305287    0.63351454491897   -3.12545393272144
H          19.29263575539010    1.29000760583388   -7.14419858239330
H          18.65649550516721    2.31859601315250   -8.47025889974592
H          20.12185612277410   -1.02711195155974   -7.77148667952617
H          19.59709002927461   -1.74401780644317   -9.32772266457872
H          18.78220871573537   -3.85412400063606   -6.73029180010240
H          19.17050053027138   -5.47154088519908   -5.07239620736842
H          18.47375561595056   -3.35978813176755   -2.95985168394187
H          19.68081398129747   -5.69245905859820    1.64918300362903
H          20.29318992330361  -10.97564810077681    0.04880380475469
H          21.15459780150296   -9.59338324610151    3.99267736541664
H          20.48857723685376   -7.28945327732628    3.35334357346395
H          19.46588672527495   -9.42454651244716   -1.65203379856992
