120
 SCF done       -218.291543844114          0.000728716618
C           6.07000929196717    7.68137304321469  -10.67203813951570
C           5.78682152365829    8.21869894876960  -11.89695533631964
F           5.44910792285878    9.51679397047408  -11.98809539496741
C           5.83427737843538    7.46460539968973  -13.07771152244216
C           6.17542398873281    6.14273736085349  -13.00545283350250
C           6.47690628560369    5.53667665694523  -11.76838774157515
C           6.42147319404921    6.32073348389687  -10.57851362203526
C           6.70862230422789    5.73309409615635   -9.32485662658379
C           7.04100324405789    4.40654063660279   -9.26676420209777
C           7.11050231817408    3.63043487831272  -10.46095377919572
C           6.83271368542284    4.17218868513758  -11.68335536030174
C           7.51523682835845    2.25222190900606  -10.12803176999287
O           7.62440893220697    1.30300923762191  -10.86779701696956
C           7.83150711629112    2.28448556794050   -8.66873696264006
C           7.33127704429599    3.53650907435865   -8.13351111113028
C           6.94018403885060    3.75454925574216   -6.83930635625008
C           6.96941834723111    2.74914725004380   -5.85013769268784
N           6.93278343621183    1.93564868697973   -5.04133170607532
C           6.37603779644099    4.96346849196683   -6.38456060562289
N           5.93400236886380    5.93705040926415   -5.96780029969798
C           8.56638888184958    1.29060821487293   -8.11448060115869
C           9.29505079789114    1.29623739503630   -6.88883588160062
S           9.97712950331167    2.75148511430059   -6.22089814935672
C          10.69112509807383    1.87020342325129   -4.90257458232103
C          11.49468088624882    2.56611018274556   -3.89405314557529
O          12.07528131145101    2.00375831521188   -3.00006737315333
O          11.57792186471588    3.90551458643577   -4.00704959528750
C          10.39799890821257    0.50720672903456   -4.97651860488928
C           9.63254127212901    0.20765390311319   -6.12747932228963
C          10.80839460541134   -0.44010254975411   -3.97933423238331
C          10.55044711140324   -1.76229136503396   -4.01597875374710
C          10.88923694311606   -2.71833547456471   -2.99141876569299
C          10.51761446801672   -4.03376806872399   -3.16728315736548
C          10.76954844452854   -4.99531525516850   -2.16763649571506
C          10.47369728524819   -6.34859835690045   -2.08696453560620
C           9.83443935123099   -7.24501932040679   -3.09308367945197
C           8.53669046164864   -6.67207087396134   -3.69001562590976
N           7.61016149226337   -7.76069147878422   -3.94888032682966
C          10.84959098855331   -7.60251287263106   -4.19744179039700
N          11.91558710429791   -8.40707298664693   -3.62859634956097
C          10.96086269175208   -6.80348208744966   -0.80380045705287
C          10.92269710591993   -8.01863520750550   -0.23013945372641
C          11.47483681688464   -8.24855782105066    1.13862565545396
C          12.11205763871657   -7.04973820999707    1.76357593528422
C          12.13575949824691   -5.84067999822674    1.17350595179675
C          11.56838175105980   -5.66082565238009   -0.11110543279361
C          11.44678654161953   -4.56964564926271   -0.94620694806814
C          11.84254167715604   -3.21894233173265   -0.80371103639979
C          11.57117754447670   -2.32893373228759   -1.78945425712938
C          12.37091683951960   -9.45841686445161    1.08486366685915
C          13.70034420377747   -9.40978591806291    1.17401979038256
C          14.56113574623238  -10.56084505929950    1.11954262015696
S          16.27696533916055  -10.34154402082108    1.18523485701450
C          16.57630820510182  -12.05301274349445    1.09971687577224
C          17.97611255186549  -12.49646045968917    1.20308694797972
O          18.31176013993893  -13.58512623022102    1.59104368791043
O          18.90809860347364  -11.58783710756218    0.87483727933293
C          15.38034572574787  -12.76250748762583    1.02036962142163
C          14.26044075907473  -11.89167362207151    1.03409783212523
C          15.14102943178689  -14.16665035025962    0.81854584094890
C          16.03362026486774  -15.17057432733753    0.69981911146096
C          15.67601581075952  -16.52354283917100    0.43134576085490
C          14.61839937021763  -17.03339791834068   -0.25359370437800
C          14.29616420036414  -18.48182919929683   -0.08069904938615
O          15.00305575242345  -19.32022721828911    0.42702284990300
C          12.92841987152674  -18.64385515488051   -0.60531658864313
C          12.11939959756157  -19.74287071835478   -0.56721749307894
C          10.81726416896438  -19.65887445193219   -1.10783863495271
C          10.37512501583422  -18.42650773909876   -1.67162089642085
C           9.07178798739931  -18.34536923683970   -2.19990546824364
C           8.26360338422990  -19.44731973100078   -2.16440419391899
C           8.68071568806390  -20.66843377592847   -1.61669472078132
C           9.94177444500599  -20.76429594811311   -1.09783901034820
F           7.01912243506058  -19.37161794356642   -2.66893499746411
C          11.23743587432700  -17.30608961797047   -1.70183611743281
C          12.50092646119825  -17.41530556969743   -1.18523369586473
C          13.59886299633344  -16.45228773358889   -1.10623897115122
C          13.69867207393821  -15.32739017804637   -1.88188715181847
C          14.82658213968313  -14.48576073982595   -1.95805305088604
N          15.70387928327784  -13.75827888960021   -2.09589299083563
C          12.68274103945962  -14.88312001491865   -2.75443973265854
N          11.88316077287156  -14.45631050570997   -3.45892579374106
H           6.01961390665006    8.29085489095540   -9.78335210937798
H           5.60080107153294    7.94303972947640  -14.01556542636457
H           6.21841138967206    5.54179893425950  -13.90127585815723
H           6.66702252584877    6.34863428686474   -8.44006728910866
H           6.88160547649062    3.56620848273726  -12.57563067340848
H           8.67357998990503    0.39349009374581   -8.71713138084020
H          11.06247944046999    4.26775797197857   -4.73933186433224
H           9.29568035990156   -0.78092331361162   -6.38053803019549
H          11.34614740773508   -0.00877274760685   -3.15076190786391
H          10.02239588302315   -2.18084894766657   -4.86395420120755
H          10.01417433755940   -4.32952723022211   -4.07576715933800
H           9.56099229193024   -8.17993098345194   -2.59734217727781
H           8.76868654805663   -6.08046704777523   -4.59127050388720
H           8.06481152770727   -6.00758830484095   -2.96108399714282
H           7.99010674985500   -8.39153340703227   -4.64678368190766
H           6.72808921800767   -7.40434692134048   -4.29917690678083
H          11.20513502348390   -6.67097185124733   -4.67052756681253
H          10.35533485554253   -8.20805733205983   -4.96245606364108
H          12.44620211720340   -7.85943884691214   -2.95874865050292
H          12.55255429839377   -8.72242830364213   -4.35124626068972
H          10.50078553942058   -8.87631979205610   -0.73440000747309
H          10.61620394946300   -8.53188924533271    1.77266513482132
H          12.53429670390470   -7.20120633837952    2.74569341589844
H          12.58783307175176   -4.99427224835447    1.66977577834401
H          12.35303852955800   -2.90877379404595    0.09609942678802
H          11.86960233560610   -1.29970202807712   -1.67496087089699
H          11.86532212818691  -10.40029100530316    0.92785337006218
H          14.19704798058322   -8.45739585046693    1.30110316236451
H          18.54569531516865  -10.76346526925976    0.52385520083194
H          13.25103593820199  -12.25784272542226    0.97638706325208
H          14.08575266301994  -14.41092246755127    0.75196783934681
H          17.08020185969740  -14.98581717547751    0.88993995711891
H          16.32562258514972  -17.27667173147981    0.86915211434237
H          12.46898793139692  -20.66522660324690   -0.12832360930883
H           8.71859102566464  -17.42273915263639   -2.63333459604656
H           7.99870977133833  -21.50382275282877   -1.61663204013844
H          10.28583647256871  -21.69399476670088   -0.67041458194491
H          10.87042050856448  -16.38513250660607   -2.12610043614436
