128
 SCF done       -216.990497058643          0.000916875496
C           2.36186223519767    3.68817114231405   -6.20810291462972
C           1.39117436678557    4.20234201093105   -7.02160656915285
F           0.20233645596437    4.55362431650762   -6.49477579857706
C           1.58109022130490    4.38107102024498   -8.39821606435494
C           2.78147963636712    4.02973783059448   -8.95071844146625
C           3.81767142719189    3.49436063589632   -8.15893428938050
C           3.60447484125295    3.32123621441272   -6.76031455900562
C           4.63087545813714    2.79052977509725   -5.94426078543338
C           5.82412293759371    2.44003553505688   -6.51373005899190
C           6.02878940361693    2.60376045522851   -7.91443794545282
C           5.05957291808133    3.12225050633566   -8.72261434358128
C           7.37939345301817    2.11757671994736   -8.27201697103276
O           7.92165976708659    2.16341821342868   -9.35278378784491
C           7.90861893820804    1.50841697182946   -7.02571788930499
C           7.04888660344640    1.90065697578191   -5.93267863497061
C           7.42531159941143    2.00912685176534   -4.61734869575562
C           8.73935427451382    1.74429620471395   -4.18252427235628
N           9.81830538211351    1.58705867406511   -3.82134817084167
C           6.57986473213111    2.47757668929819   -3.59482423269814
N           5.92069217013260    2.83481599566267   -2.72491622118467
C           8.97413581050114    0.65882772852503   -7.06391961906422
C           9.31834945183752   -0.32994550657064   -6.11399085132359
S           8.10408798411285   -1.06935450713770   -5.10423751407034
C           9.27271199527260   -2.11801956686408   -4.36768130995434
C          10.54036996051471   -1.88247245029756   -4.86677109523122
C          10.56369288987097   -0.89659589230508   -5.86943290548061
C          11.82111338438052   -0.42060394834228   -6.51688380082728
S          11.71079320913946   -0.69772014171130   -8.35367570927621
C          13.07113116854228   -1.12131853739104   -5.98614983356669
C          12.93056776495060   -1.45492220482789   -4.50596467038533
C          11.80561356699696   -2.47239233669006   -4.33121566145312
C           8.83369120041033   -3.07053687105088   -3.37685154055949
C           9.44262005852275   -4.29521709946820   -3.24364376669556
C           8.95879606930827   -5.22176922319626   -2.29694358613034
C           9.36513366619057   -6.51434650040179   -2.00555694557543
C          10.51825437492205   -7.24465443886361   -2.60755056173145
C          11.51338141035267   -7.72024171854976   -1.52956220028579
N          12.83366568981983   -7.85074085383481   -2.10823038875237
C          10.02765232216248   -8.40046362028692   -3.49781653151119
N          11.13006699146744   -8.98227499038611   -4.24835386071570
C           8.47507518345883   -7.00361058719606   -0.97767552911333
C           8.36643582067476   -8.20731130779432   -0.38824366760294
C           7.37879392868019   -8.46100551961832    0.70430873119214
C           6.46658607415535   -7.31745822801704    0.99897442537413
C           6.54425327591201   -6.13937442514360    0.35413649286971
C           7.52972212204577   -5.92800173636552   -0.64037270042441
C           7.82235064404423   -4.85791608988226   -1.45939429087079
C           7.22442918345246   -3.58525251375196   -1.61642959902992
C           7.70965675638246   -2.73187669134414   -2.55064036378476
C           8.24296106800880   -8.86356166104522    1.87173322694442
C           8.47367327568735   -8.10755032370974    2.94801533008768
C           9.40661455691497   -8.46891899276999    3.97149481184981
S          10.39643474731283   -9.88423861036434    3.79447392146679
C          11.20116480105438   -9.56926531264658    5.31013072297870
C          10.67426317687604   -8.44960819254004    5.92764030503742
C           9.70813760640425   -7.79250582513419    5.14096467349446
C           9.14112363881987   -6.46414314007083    5.52095671997166
S           9.43846642326668   -5.24037866560015    4.16159535832295
C           9.74135473247815   -5.91567033528097    6.81598335400825
C          10.01182267075912   -7.02753295698598    7.82239304560573
C          11.09565455669876   -7.94721234680215    7.26638317745290
C          12.26950581295022  -10.38729794777854    5.75353685764582
C          13.17261293119417  -11.02539977072623    4.96018744229814
C          13.95032022806105  -12.18501849665842    5.47100582217079
O          14.05977255649375  -12.53400449675052    6.62430163478394
C          14.49799930450255  -12.83854974605561    4.26524177000473
C          15.18021944997608  -14.01594343321860    4.16086943265041
C          15.58316189660837  -14.46928998765159    2.88427204347580
C          15.26813942107085  -13.68861896226370    1.73389893898891
C          15.66563946489674  -14.15072181069269    0.46428805598107
C          16.34452859765124  -15.33303316215852    0.36256790096572
C          16.66496594277367  -16.11412240593352    1.48106788816960
C          16.28634200597460  -15.68025992311001    2.72124107041904
F          16.72422962495334  -15.77587080013740   -0.84973857873494
C          14.56827682859446  -12.46753073233585    1.87245256097694
C          14.19214677847128  -12.04759035888088    3.11943656012968
C          13.49729547365708  -10.84337852523336    3.56124103172613
C          13.41472793650068   -9.67139129833111    2.85072721485810
C          12.99145541681287   -8.44337809132771    3.39852090858724
N          12.70176002596677   -7.40935573243495    3.80781549987835
C          13.80861188967140   -9.53686914635161    1.50634344006812
N          14.08881770106609   -9.37083490660221    0.40458988991964
H           2.18171247665600    3.56713617174229   -5.15129409661949
H           0.77841766024055    4.79074276802620   -8.99070832584624
H           2.95155811421375    4.15816006162393  -10.00922333971963
H           4.44433010523819    2.66153908054336   -4.88952818155241
H           5.23488377397823    3.24585888075712   -9.78085892146584
H           9.56941393899353    0.68842390426878   -7.97137894221360
H          11.88975832422008    0.66296542490059   -6.38708497619180
H          12.74941558428534    0.07625510457803   -8.65858602197616
H          13.94052992164890   -0.48359649133885   -6.15703976958961
H          13.22250337623949   -2.04968483921177   -6.54294304136199
H          12.69814246244082   -0.55079898929222   -3.94017123795843
H          13.86743942709139   -1.86728224518835   -4.12969879312239
H          11.67587244870601   -2.73355290945058   -3.27941534622738
H          12.06243371904905   -3.38545492608878   -4.87768339328891
H          10.25310161767906   -4.57743182858394   -3.89599672620250
H          11.07340481401079   -6.54895523608680   -3.24481853154506
H          11.14271687824951   -8.65394225802748   -1.07476077144479
H          11.56434659379634   -6.96577337170162   -0.73666628566946
H          12.79835368932675   -8.54950205344074   -2.84531388068645
H          13.49372685610057   -8.16450527209039   -1.40356631057187
H           9.22097490428694   -8.01383481229909   -4.14573877579883
H           9.59888198846779   -9.19171615580354   -2.87704197489356
H          11.52597500098319   -8.28768248408187   -4.87435761219146
H          10.79977471346512   -9.75634421438527   -4.81514941310171
H           9.01760773233942   -9.03165164925585   -0.63979796769292
H           6.77156934064309   -9.33749928324844    0.42854585353559
H           5.72504578059467   -7.49105633156916    1.76428231615501
H           5.85785457825362   -5.33826704991840    0.58635088188061
H           6.38409482256124   -3.30904019163140   -0.99737669804447
H           7.26368010709921   -1.75714493249611   -2.68616095516048
H           8.75640619648105   -9.81104855333385    1.76080236916826
H           7.96909751864006   -7.16004488582901    3.06585991433550
H           8.05064947483528   -6.51896609519231    5.58945675671804
H          10.72611255090776   -5.53546562212242    4.00601349564314
H           9.06541190137375   -5.16812825205076    7.23249438913840
H          10.68644918971463   -5.41801215935078    6.58678547009030
H           9.09862440241909   -7.59911979125923    8.00304322905976
H          10.33791664733487   -6.59806637981578    8.77008522672335
H          11.28074933606543   -8.78747656529839    7.93943347996582
H          12.03431949421844   -7.39343323447599    7.16672080285762
H          12.35297180287695  -10.56772860778787    6.82057232121328
H          15.40904233449577  -14.59730727729658    5.04141379234762
H          15.43933719596000  -13.57324574065673   -0.41843635192628
H          17.20184674000920  -17.03863967712685    1.33953994001362
H          16.52176858707072  -16.26507069038680    3.59764492401595
H          14.33496654394516  -11.89940717835055    0.98572894372592
