124
 SCF done       -221.258248594343          0.000549437067
C          10.04859644858697    4.68479477855760   -0.62686349719984
C          10.76617947342242    5.84386750145550   -0.71490167226956
F          12.00552151352051    5.82012119501471   -1.24794676454009
C          10.26608598950818    7.07515366770245   -0.27319333842023
C           9.01304477873389    7.12135346662417    0.27259636902075
C           8.23462318169478    5.95355656145935    0.40056625485269
C           8.75661472464799    4.71350815883897   -0.06722798008154
C           7.98116025949269    3.53486331507823    0.02029491114696
C           6.73789490540413    3.59084571840215    0.59139044349421
C           6.23197545932385    4.83002892253477    1.07902813735928
C           6.94596221428307    5.98864118406841    0.97920209155282
C           4.89945161752820    4.61429311275909    1.67246986405627
O           4.15744327974403    5.43570259614054    2.15537028115105
C           4.68564760182687    3.13535423803054    1.62922341625963
C           5.72880010650815    2.56043222722504    0.80582052754235
C           5.69569165728307    1.33293468603278    0.20020829177584
C           6.75248212951229    0.80371564509510   -0.56672357979796
N           7.59801436971954    0.29965511611692   -1.15790805818258
C           4.57939544965869    0.47342160140541    0.24121148486159
N           3.68732468636064   -0.24793503350116    0.20663356139107
C           3.71808662173314    2.60580740426087    2.41827132562843
C           3.46625530780459    1.26435044297440    2.86330233808585
C           2.16130778297420    0.86018061407709    3.11086427358976
C           1.01148819822725    1.62892262221814    2.94031376893471
N           0.07055379616402    2.27668961918423    2.81992172394642
S           2.06597616984554   -0.79940710031820    3.59186756050381
C           3.79651853429291   -0.93392333291854    3.53280563668162
O           4.24183345577566   -2.12741144487960    3.94266876855327
C           5.60402469794019   -2.46634436496104    3.78605521441253
C           4.41999180919211    0.22553437802376    3.13179328328494
C           5.85431758776715    0.46147216442144    3.01582587864393
C           6.43450024997334    1.56838752792455    3.50233439092326
C           7.77337033372747    2.03987770423202    3.22744606935413
C           8.14541161247794    3.27393175948369    3.71195342841203
C           9.38811036984617    3.84001412707110    3.36960938500666
C           9.98584518768977    5.04971692519065    3.70395431843430
C           9.54424944239356    6.12817277942706    4.62285045747507
C           8.63384983594545    7.13910348602490    3.86284480767894
N           8.32416205927391    8.34101587445717    4.58952613788569
C           8.84500668181679    5.62325413887856    5.89420285290841
N           8.92384797852212    6.64560591623076    6.93233232664665
C          11.21656616963652    5.12487193044533    2.94594253880843
C          12.10125954753832    6.12778694569696    2.79727268588340
C          13.26099039741626    6.01715285201793    1.86886209454434
C          13.42557536680111    4.66978310982062    1.24582253890402
C          12.53225822777729    3.67595923580972    1.40838162479060
C          11.38635959047670    3.86546035025725    2.21816597532093
C          10.26626280659197    3.09739309526682    2.47410593477299
C           9.87717343777820    1.81783443024980    2.01891107661830
C           8.67407587535759    1.30865489541858    2.38755331716689
C          14.49593150347407    6.58651571201385    2.51950113694186
C          15.70171921663201    6.02918583455164    2.49932936711459
C          16.87613368282693    6.59817647650374    3.13424242476214
C          17.16845353612423    7.94135235089733    3.13108826341941
C          16.41351559861862    8.97190798495361    2.57321393588844
N          15.79316433227083    9.82394210779921    2.11584179138368
S          18.71432412130165    8.28230662141773    3.87112733310880
C          18.96773433959544    6.59501694148216    4.16198957403390
O          20.10622975953414    6.35350746373717    4.82269001701103
C          20.44716438172151    5.05604218732452    5.26412900411093
C          17.91230213556311    5.80264003066274    3.73553125412187
C          17.78547490972809    4.37751431335344    3.88548301218195
C          16.58989494938363    3.75713620414234    4.05053822261717
C          16.47035021796359    2.35447592711374    4.11481659759586
C          15.35776822481827    1.57103928702477    4.23597649475089
C          15.57625699193787    0.10260221389695    4.08672294579772
O          16.65010100948314   -0.45151121764166    3.99684062500912
C          14.23971794483678   -0.50683325477810    4.04909100594791
C          13.89538212049992   -1.80935288159690    3.83155998764519
C          12.52787994688235   -2.16049906404302    3.79020246615973
C          11.54691491426844   -1.14253804056945    3.96675904230154
C          10.18329163059862   -1.49231241943725    3.91756121348284
C           9.83534491535153   -2.79415594749044    3.69338535949433
C          10.78317912011788   -3.80991207647528    3.51590554509864
C          12.11123896718311   -3.48864491403665    3.56795897826396
F           8.52823510902261   -3.12941069244568    3.63923484720016
C          11.93629325122749    0.19817986196619    4.18831415354595
C          13.26789388603652    0.51347992461504    4.24386903323168
C          13.94479227043290    1.79719199633262    4.44859754418720
C          13.26947795007821    2.91089847641165    4.88972059912376
C          13.73186944211242    4.21777392851199    5.12498584661980
N          13.95536815581245    5.32494045140446    5.34381323325214
C          11.92147602669518    2.89113769883404    5.30490083919502
N          10.85732606452387    2.97915322969396    5.73095692488032
H          10.46235173011843    3.75704052260644   -0.98842555087912
H          10.87132478355646    7.96161692725339   -0.38248119675321
H           8.59871972693690    8.05992113591015    0.60865299724771
H           8.39541471568238    2.61374074887746   -0.35605652301107
H           6.53438845173080    6.92140358621639    1.33426959790485
H           3.01785884247509    3.34264064293228    2.80757528588492
H           5.71651053884388   -3.44307523407713    4.25161652702012
H           6.25295317218848   -1.74612424145153    4.28823618960437
H           5.87366457120206   -2.54048261992246    2.73086800868061
H           6.42511099185023   -0.26124258463813    2.45058205093932
H           5.83270988380100    2.23810909971142    4.10558724137254
H           7.45856371574770    3.82617413165075    4.33368594886671
H          10.43770580064373    6.67846246894460    4.94378992498451
H           7.69518093990707    6.63671822222223    3.61306793863034
H           9.13268000454399    7.41546928463299    2.92913393075124
H           7.92441244797066    8.10610835918655    5.49308729730324
H           9.16518558275322    8.88015045417828    4.76638167787441
H           9.30118749792699    4.66797560673106    6.18992834336712
H           7.78347931233987    5.45448639614663    5.69707712328934
H           9.88788353808366    6.76420891864754    7.22934551399511
H           8.38995448862575    6.35819170142927    7.74556904207001
H          11.99220312406113    7.06825545182000    3.31908200357822
H          13.04553963843247    6.72095967056868    1.04158718014934
H          14.26945357441926    4.54708022731679    0.58571646069682
H          12.67211753497775    2.72569523537256    0.91205331435376
H          10.53744175006204    1.25655992647958    1.37301224107270
H           8.37814243804991    0.33819630404294    2.01884315088846
H          14.33924054132822    7.51621474211418    3.04756629526675
H          15.86474945976791    5.08038218153503    2.00687819384683
H          21.28707214289112    5.19819933979464    5.94297220967702
H          20.76539759000136    4.42637828730318    4.42944917521767
H          19.61772491618248    4.58595097343755    5.79808319764966
H          18.67972639419506    3.77213279771865    3.85138364715864
H          15.70056369535614    4.35326973958289    4.14337741070846
H          17.38817652860358    1.78374780403098    3.99524710395317
H          14.65695314705654   -2.56086250114853    3.68724071838943
H           9.42973008243743   -0.73340902071204    4.05840987780701
H          10.44601274494025   -4.81950638419142    3.34362904440339
H          12.86195346931581   -4.25317933926490    3.43695253256205
H          11.16329088515797    0.94170757632319    4.29054377649611
