98
 SCF done       -192.711554070733          0.000537886783
C          13.22641634597472    4.24545500386124   -9.75769437362632
C          12.69141833461230    4.49704183016526  -10.99060208291931
F          13.43318018221338    4.28101128566947  -12.09024616130281
C          11.38501249373594    4.97697077155633  -11.15968167028726
C          10.61433705452348    5.20209020220033  -10.05342348955769
C          11.11512711350758    4.95889025166108   -8.75770581541645
C          12.44765400073986    4.47390984374558   -8.60658892645039
C          12.97643843166854    4.23400978000418   -7.31712049230369
C          12.19603023182257    4.47020975256026   -6.21729888228547
C          10.85805339580200    4.93777426266535   -6.37523223853796
C          10.32523607238874    5.18247725143148   -7.60853573969740
C          10.22499176985649    5.07847394522479   -5.05076592124230
O           9.11957171868655    5.48756014969952   -4.78856989187915
C          11.22667712717397    4.53449762083877   -4.08638079152726
C          12.48197595620174    4.35859610633806   -4.79079368207114
C          13.72546700894746    4.32925759373309   -4.21838608468956
C          13.95468571043332    4.52745334146161   -2.83959391875888
N          14.19419536034285    4.76338578197451   -1.74219288617183
C          14.92196802539893    4.21238672122168   -4.95658074194310
N          15.91487219505385    4.10163082108504   -5.52069963550515
C          10.86000580281175    4.19758109122388   -2.82535325127322
C          11.57121712112384    3.35847652871926   -1.92484499325644
C          12.40774587764881    2.19791563462100   -2.27532620785723
N          12.91032943207457    1.57699088420987   -1.25226963009984
C          12.49094557663060    2.27021049246500   -0.15489406180573
C          11.60972558816472    3.37484540716418   -0.55202906524875
C          11.19181231065322    4.12044607450285    0.61280630665893
S          10.19999910399537    5.43881614816002    0.62758268830407
C          11.82803450945335    3.45116737481063    1.70827158428804
C          12.61977648480011    2.31831475152219    1.21048178705349
N          13.24863020233975    1.67782901886102    2.24226810621880
C          12.91600061149746    2.32761666812749    3.31401491311609
C          12.02177273074061    3.47004618430641    3.07991618597993
C          11.51722186753580    4.34050213191138    4.06428963406674
N          10.67053260194128    5.37266613396747    3.74158483585149
C          10.35456479708666    6.03221186653586    4.87925797625592
C           9.62600275187344    7.09012937796244    5.39288194955937
C           9.85743364862100    7.08776346352163    6.78392156326166
N          10.70472745796234    6.04885680996809    7.10739476961160
C          11.02922285796739    5.38757554595679    5.96655301201262
C          11.75598620555306    4.32861530808399    5.45720213646915
C           9.31794471867286    7.99556496494463    7.71758824112696
C           9.54017033200397    7.96819318572290    9.06299515791344
C           9.01987395421521    8.89797690266348    9.98453160381804
C           8.14073471283934   10.05538129169729    9.73443760257429
N           7.86773469028045   10.75813663616594   10.78855488123943
C           8.53638767851040   10.15315640646455   11.82166853059603
C           9.23717875549516    8.96226816489800   11.34851689044162
C           9.93847562376645    8.33667253503121   12.43088110655255
S          10.79151912149535    6.92039543335075   12.35494447655217
C           9.73012253116680    9.21048710857456   13.55350091247190
C           8.81591926830906   10.30172378458198   13.15541001302612
N           8.56705998941007   11.13368034906963   14.20257514390713
C           9.25677843849705   10.66303806826048   15.19458288169139
C          10.06568758637253    9.47380257021523   14.87395312969199
C          10.88047486245047    8.88062307569554   15.85803491590793
C          11.93613345982672    8.01174068614686   15.81969840738683
C          12.31279848598484    7.34296741029948   17.10906788197727
O          11.90346076503083    7.63495595978507   18.20805475432833
C          13.23765613837061    6.26198905971882   16.73484940369233
C          13.79989038229419    5.29860248248395   17.52142900468063
C          14.65478896865336    4.34056784598344   16.93120904245189
C          14.90528588629906    4.39981476166955   15.52927243661605
C          15.75428036477087    3.43952962884533   14.94681340690394
C          16.32003706816168    2.47618953284760   15.73574127053835
C          16.08700655979435    2.40196761750011   17.11540095369377
C          15.26366463608352    3.32591048463690   17.69719378950786
F          17.13210832099294    1.55933071083025   15.17987673151132
C          14.31293103346703    5.41433632095258   14.74007795491032
C          13.49576123930823    6.33586542451190   15.33564542680242
C          12.78411048667170    7.48872408471170   14.79043401993965
C          12.98941305801860    8.02857957315335   13.53756709791609
C          12.55768664788659    9.32108609471322   13.18278455495025
N          12.23757310246997   10.37702105038332   12.86659647276586
C          13.84334066318814    7.47445833198397   12.55753951030022
N          14.50156697172097    7.07207598145300   11.70848100822825
H          14.23722448849941    3.88013353422724   -9.66528659503543
H          11.01744506883482    5.15754665570245  -12.15732621062260
H           9.60535978084996    5.57134371664532  -10.15820817735248
H          13.98475504692197    3.86081669785875   -7.23089872266626
H           9.31289430656748    5.54505248524304   -7.70552165909306
H           9.89580858814084    4.56827588094776   -2.49015489351831
H          12.56553523635441    1.82935828632467   -3.27427191412122
H          13.28486767806917    2.01893015555281    4.27599971435252
H          10.37071515037014    5.57888985024627    2.78596555954291
H           9.00409211362105    7.78762130849542    4.86945332834597
H          11.04348582241813    5.84734057223102    8.03239785196254
H          12.37897710345093    3.63250793674936    5.98048922992332
H           8.68193149888442    8.76259780181233    7.30019730662246
H          10.16894100823343    7.20072392698953    9.49589287545008
H           7.71896970821893   10.32529532705062    8.78234832357889
H           9.23485647107120   11.13870135415125   16.15975551157361
H          10.58958128066827    9.13781570886278   16.87594831019938
H          13.59513141677351    5.26624547886682   18.58108053779853
H          15.95860488196179    3.46721507512828   13.88788621312895
H          16.56089745419713    1.61987404325396   17.68700635031340
H          15.06860798178147    3.28952428280654   18.75840344493440
H          14.51509534195031    5.42989718717285   13.68108818501833
