108
 SCF done       -205.787206058197          0.000564726261
C          15.70539834384411   -7.87501834300208   -0.53776258997070
C          16.73909647121619   -8.76094298437708   -0.66558987206963
F          16.56191548841338   -9.88552322911372   -1.37976660561105
C          17.99275806124171   -8.54378088073065   -0.07670037826688
C          18.19289918025620   -7.40510598584244    0.65258210989641
C          17.16215756319388   -6.45655240914068    0.81572724854195
C          15.89315648587250   -6.69698433130521    0.21094364090558
C          14.84185921081429   -5.76371103793350    0.36624546358219
C          15.05749021845514   -4.62711390561386    1.09804186104764
C          16.33321704574763   -4.38416145002715    1.68720808707073
C          17.36215598124346   -5.27270889977442    1.55956969609361
C          16.31615617047252   -3.08243949806189    2.38066350782254
O          17.19101572506184   -2.57194172167935    3.03749793305759
C          14.99052853279458   -2.48477377487540    2.03993058591332
C          14.17131172125524   -3.52055999163751    1.44260327340424
C          12.80240392873919   -3.54580426298243    1.42692459345957
C          12.04797935374395   -4.61894645229165    0.90866302902890
N          11.40200511895550   -5.46770066820359    0.48616150048876
C          12.00469662073614   -2.54825642502717    2.02800738021426
N          11.32508267131830   -1.79602528517618    2.56587833510480
C          14.77281489510489   -1.15617919040875    2.20411861616122
C          13.76530258916432   -0.36262416237295    1.59422945847387
C          13.13079289937990   -0.57973325787989    0.28165922553586
N          12.32688517935471    0.37028144934541   -0.08449383091439
C          12.32127105507088    1.26913576955479    0.94358621408561
C          13.23015458238660    0.83279681132942    2.01000001072219
C          13.27830492109153    1.81835320128596    3.06329905518679
S          14.30365499348693    1.79415577435751    4.35086223275578
C          12.36128731774137    2.83915739851875    2.63752634255358
C          11.81898463813576    2.49104208876265    1.30482907140116
N          11.06208757953611    3.51054142414242    0.81094493131875
C          11.12150387108869    4.45468425336696    1.69956263876124
C          11.90320985321096    4.11433114042742    2.89679328494282
C          12.05218084899295    4.97652202647688    4.01099379012943
S          12.19533755403983    6.68517055868997    3.76250598402619
C          12.34881698142342    6.97248734607911    5.47827976100974
C          12.24911533033449    5.77700673901585    6.19347091781241
C          12.07328696520030    4.65924950605461    5.36645423313978
C          11.81295825753434    3.29364277794086    5.89482470750832
C          11.28133058036386    3.36975853277441    7.32486667371745
C           9.89182785937713    3.99773339764392    7.35334607377172
O           9.45532245018216    4.64286932083474    6.43435895065738
C           9.10807973317945    3.73368270761966    8.61043115480927
C          12.26729651508540    4.20613776837609    8.15153245640615
C          12.28338210734320    5.66121709906534    7.68347211391434
C          12.56624835945512    8.31155334659681    5.87298310508975
C          12.65541424820486    8.79581347128553    7.14243247803322
C          12.94096931675091   10.13921289083809    7.46757611619499
C          13.18331378248696   11.28896095001022    6.57914548578023
N          13.47365636032533   12.39330343266196    7.19616216854213
C          13.45548254739167   12.08978233967421    8.53111766018115
C          13.09984036686008   10.67921150716485    8.72916800108770
C          13.11350973110303   10.35172370871657   10.12361280953481
S          12.79540508306897    8.90257847509226   10.83340740132659
C          13.48825054462453   11.58892731993464   10.76986413120235
C          13.69739371676244   12.64169921494535    9.76232238617985
N          14.10011508509872   13.79919314314833   10.36127634264214
C          14.20923417313371   13.52353419636738   11.62459810512006
C          13.84844219971986   12.13911933754850   11.97451351308227
C          13.83960451456667   11.57412401988053   13.27990373449020
C          14.68492993233083   11.87768609634186   14.29506340783617
C          14.33642103214452   11.54255835091902   15.70790492140058
O          13.46144629997668   10.79742395168025   16.07810051023234
C          15.24258234824005   12.36879479023866   16.52746097227271
C          15.26164492564778   12.53098297597563   17.88328144501228
C          16.21361107935224   13.40003389467963   18.46059564412332
C          17.12930163479516   14.09452097362341   17.61617738270222
C          18.06997879800550   14.96617290423380   18.19841379719742
C          18.08715488526585   15.12458553358084   19.55643965680004
C          17.19734700224581   14.44895374753930   20.40351916291435
C          16.27686485122684   13.60007200708325   19.85517598505439
F          18.98406533227763   15.95550169146673   20.11422107923596
C          17.09193211148974   13.90322461944112   16.21555610970312
C          16.16686629793085   13.04790210612897   15.67985032357694
C          15.92301983284211   12.63296456438661   14.30264053788312
C          16.80700184594008   12.73419244793084   13.26181670435852
C          16.64745605033163   12.05890710442802   12.03266227784142
N          16.59874744513953   11.46808676197599   11.04989041421572
C          18.03149054565847   13.43028436926586   13.34296979616321
N          19.02840714903439   13.99766493460469   13.36583149977502
H          14.75292692015668   -8.07674158566315   -1.00239707432634
H          18.77052820349815   -9.27843959774105   -0.21223829026599
H          19.14958567144966   -7.21548466086933    1.11542895176274
H          13.89381037605400   -5.96495022962898   -0.10749846972020
H          18.31855187461861   -5.07315650300859    2.01914081050268
H          15.49407064222271   -0.62563259498988    2.81932457641241
H          13.33615120813726   -1.40533910965320   -0.37758033669146
H          10.60474882787464    5.38813195050565    1.55751759729655
H          12.74269797770077    2.71179583267039    5.88634869951869
H          11.10460281480591    2.77626402589804    5.24328360725776
H          11.21876241829355    2.36429959544419    7.75042020323044
H           9.72237021599128    3.88283952404960    9.49427135433226
H           8.77797098081938    2.69572557587265    8.60171455231797
H           8.23343610932159    4.37772619248855    8.65003820759897
H          13.26122658498667    3.77054000828383    8.03184703383912
H          12.01570943083454    4.17357799189028    9.21216229833518
H          13.18009991832006    6.14911543549693    8.07362593471105
H          11.41274832267701    6.18663082379536    8.08994988402229
H          12.67429324365791    9.00835474595471    5.05110409070662
H          12.51689195647496    8.14970540464144    7.99367321834712
H          13.13184862240368   11.27200346660608    5.50448339958053
H          14.48850286389614   14.28544671527349   12.33204250415293
H          13.04465109480559   10.86992791125618   13.50552008135300
H          14.55841353743097   12.00115359711729   18.50820971503126
H          18.77250891090572   15.49964120084953   17.57737693558919
H          17.25846115820365   14.61387553030986   21.46751142288952
H          15.58122082905181   13.06882840093338   20.48708059780333
H          17.79068640472871   14.44594022871369   15.59854056030189
