114
 SCF done       -211.399677434922          0.000856457315
C          12.74275167389910   -2.60589471558793   10.59666471391932
C          12.81512534130430   -3.35312101125667   11.73940605514007
F          13.56637409656402   -2.91913050798752   12.76799482096131
C          12.13195538438308   -4.56738123374543   11.88769616919788
C          11.36444724456003   -5.02520935650962   10.85275488036839
C          11.25460285626493   -4.29552037509936    9.65179552795214
C          11.95449040895066   -3.06111735503369    9.52245078190556
C          11.84874268324268   -2.30323173522101    8.33198851354087
C          11.07119451536698   -2.76948532155236    7.30785238302020
C          10.39232949416419   -4.01518755167351    7.43403145513587
C          10.46938843268198   -4.76213101605329    8.57297795554802
C           9.66862195619315   -4.30090304846850    6.17964489490896
O           8.95307406643997   -5.24587737859434    5.93266382983423
C          10.04288938405494   -3.20324888337124    5.24976641427117
C          10.74333311419245   -2.19606902606135    6.00218845391945
C          10.86750638336673   -0.86260053211503    5.68261144841019
C          10.28840386063043   -0.26938216190632    4.54615068627648
N           9.81011367126104    0.25893998046253    3.64538045407259
C          11.49266358329710    0.08921457423723    6.51286485337439
N          12.00444337484641    0.90090757461160    7.14286227734284
C           9.72289614319214   -3.32397671408989    3.92263673995094
C          10.26402978604871   -2.65887022073911    2.81462598393380
S           9.39306446242916   -2.64377730401503    1.28586352665402
C          10.58997479739314   -1.66961428297508    0.46471843886701
C          11.62518312748073   -1.41947743979965    1.34226440572008
C          11.45037817680041   -1.96363508056490    2.63473287456840
N          12.56792209884987   -1.65640538950466    3.36032939002461
C          13.43255503298220   -0.88331846795423    2.59103788018123
O          14.49318567299995   -0.43547827989322    2.93579444388305
N          12.83757348022137   -0.76387452879565    1.35139871779370
C          10.39467518180699   -1.21612352404053   -0.88331798324834
C          11.43918016756045   -0.69357892803137   -1.61276392675793
C          11.21076827976851   -0.16098994372025   -2.89658387901967
C          12.06054798285028    0.47043134197537   -3.79358305718905
C          13.53068923584215    0.70659253329253   -3.69393966106583
C          13.95644538290428    1.36585241508771   -2.36808029340191
N          15.05167245670139    2.28322009077893   -2.62011302044655
C          14.29313454684460   -0.61158729247473   -3.93058132074992
N          14.09211341307046   -1.04544818000539   -5.30152206215296
C          11.24970662302532    0.86295052894546   -4.92240086678945
C          11.56365456881555    1.54842334553096   -6.03695053636869
C          10.52344000281656    1.90087817236207   -7.04718564714099
C           9.17125305183520    1.32396237830873   -6.78014997764567
C           8.87372322477987    0.64952398695038   -5.65465329794359
C           9.87294488215796    0.41166648839247   -4.67969318336268
C           9.85878445351091   -0.20297808352584   -3.44576596458850
C           8.81988616199698   -0.80413876399056   -2.69579633534489
C           9.08211109721910   -1.29005297532497   -1.45895790440588
C          11.05014154773670    1.60504571323295   -8.42450386815003
C          10.68215554352946    0.55446935408470   -9.16290166140081
C          11.17105804563439    0.30189752830993  -10.48180354952355
S          12.28732371117140    1.38563663152383  -11.28703057369230
C          12.31270961433622    0.44766571182080  -12.77858028432322
C          11.51434039673343   -0.66498107856751  -12.59634491296973
C          10.86597285246956   -0.72869612374777  -11.33650058101640
N          10.08848141155341   -1.86186434810432  -11.34712701892717
C          10.20749827432247   -2.50588222690363  -12.56649120507883
O           9.66366640139446   -3.52044903269723  -12.90693733136311
N          11.10184659943793   -1.74774050175114  -13.31733901121142
C          13.10391012656697    0.77066562293680  -13.89991667524471
C          13.66893215835719    1.96537191206496  -14.22990568325429
C          14.83767281875659    2.00712803370365  -15.14877444855675
O          15.23390270037572    1.11046890234336  -15.85830352008966
C          15.43087528713072    3.34484096994069  -14.95200797168176
C          16.58618005316916    3.85776938046983  -15.46716932796057
C          16.97562907376779    5.16985039014464  -15.11531574379708
C          16.15847289844146    5.92742556117882  -14.22605114289708
C          16.55866438242732    7.23059733657788  -13.87265566478102
C          17.71548204164389    7.74165168285526  -14.39200650205516
C          18.53031246176890    7.01473021761570  -15.27060877896658
C          18.15804163709645    5.74709796182940  -15.62209717923551
F          18.09855508568873    8.98656753227961  -14.05627162438815
C          14.96072203973330    5.37494582532553  -13.71526397340486
C          14.60049702683936    4.10621513629775  -14.07838212015300
C          13.42168844960661    3.30863169545914  -13.75634054556117
C          12.20828640360940    3.80688737063286  -13.35754106511128
C          11.02343572632570    3.04352707441704  -13.39190213048159
N          10.03816927425877    2.45855946455513  -13.46622690393852
C          11.99855592600161    5.14432465336248  -12.96972452520736
N          11.78365112449704    6.21711878596972  -12.62168008987371
H          13.27892845339841   -1.67298781113771   10.51901762123256
H          12.22612755398255   -5.11326755935426   12.81296864924444
H          10.82897563972105   -5.95830435140904   10.94319895033299
H          12.39323927071811   -1.37490387161428    8.26129819092468
H           9.93681681225624   -5.69794766908683    8.65211659697743
H           8.98055841302308   -4.08508291238728    3.70291610277630
H          12.76346661445951   -1.90655372902544    4.31483241361081
H          13.20073685743331   -0.15810453292388    0.63595465697148
H          12.43979130787583   -0.70035699333152   -1.21377031404941
H          13.82431334981181    1.39408509886428   -4.49096158312925
H          14.21155792678473    0.58471769400308   -1.63013218940468
H          13.12306067894796    1.95152038982321   -1.97022193837734
H          15.86901020099202    1.78037537681266   -2.94879722084133
H          15.31012515452626    2.77740717547669   -1.77365625769868
H          13.96469755931730   -1.35483365466833   -3.18363760167378
H          15.36522145494104   -0.44220121806265   -3.79478425049042
H          13.10937427747901   -1.24439049121121   -5.46035835665406
H          14.61731924714554   -1.89246757388575   -5.48756054210714
H          12.57093562151380    1.88272283306475   -6.24053733134512
H          10.41808820318528    2.99918556987022   -6.99182709897765
H           8.42181895554619    1.51853061998948   -7.53227256901821
H           7.87392036473147    0.27903558294523   -5.48108819571804
H           7.82517619417661   -0.85699036893667   -3.11215896178696
H           8.29917856092053   -1.73511710203038   -0.86342554917969
H          11.79144901983022    2.29213219261344   -8.81003041002220
H           9.95881604623224   -0.15534042866550   -8.78379268026538
H           9.47878887227070   -2.18508172802303  -10.61639206563451
H          11.35360204826602   -1.97869620169052  -14.26338948259717
H          13.36702372392507   -0.06227218564911  -14.54566274486429
H          17.19673008436784    3.27069327757820  -16.13671933844702
H          15.95353455045689    7.82054130679117  -13.20215257367511
H          19.43129043311157    7.47047175641302  -15.64949883098721
H          18.76964633924598    5.16776560596808  -16.29724124851178
H          14.36097409729020    5.96541196575020  -13.04049828539447
