100
 SCF done       -207.841526794626          0.000818005310
C          24.02759720809344   -1.74754008869686    0.63518850052688
C          25.34376449985650   -1.39685828715078    0.51914385909754
F          26.24693968938822   -2.32730168371118    0.16172789903729
C          25.79868451722758   -0.09282564885184    0.75965097540142
C          24.89495833706756    0.86604507423857    1.12325198821409
C          23.52463681720269    0.56008511506956    1.25589948684633
C          23.08214946826460   -0.77282697608951    1.00968665540592
C          21.71373685167095   -1.10546211835347    1.13935095215979
C          20.81799581550598   -0.13507803066040    1.49979612432986
C          21.26389795840528    1.19875453925184    1.72384114598500
C          22.57994898575882    1.54645346896153    1.61491476575606
C          20.10388788723147    2.05294142878380    2.03077360730002
O          20.09518064731943    3.22145561622049    2.33367343287468
C          18.90538717896171    1.17968392406863    1.82211417333996
C          19.37160522277287   -0.18885564319662    1.70527596894524
C          18.66253667547417   -1.33112452410871    1.95870446262142
C          17.29552036775842   -1.37653359012437    2.29092031527073
N          16.18302733564588   -1.49684293245375    2.54834009075317
C          19.24350084797865   -2.61806311228062    1.99876111163909
N          19.67471193491086   -3.68107606649339    2.02750828294302
C          17.69159009563126    1.77804186271500    1.70991874886475
C          16.47054696619309    1.27094265551865    1.19874784681443
C          16.26606211661861    0.16653723712289    0.25214605357991
N          15.02243070366202   -0.04500569488056   -0.06518138833328
C          14.30204847480528    0.86936172132376    0.63947756965119
C          15.19594316855206    1.75587834832298    1.40500583116165
C          14.43142832528886    2.75650781677653    2.10440778580836
S          14.98173023781040    3.92638376191222    3.11323638124215
C          13.06074406784150    2.47103288484721    1.74171770237860
C          13.01266980779705    1.26555833597978    0.87953006905750
N          11.72840738251178    0.95372809329566    0.56590096650750
C          10.99616294660909    1.86023256953858    1.14701900411373
C          11.75973825364026    2.86215746798402    1.89626120910250
C          11.11497902621974    3.97443643811822    2.57017026097457
C          11.34301548408781    5.29791778106274    2.31077794784784
C          12.28514317511863    5.93630554098285    1.35185440130858
F          12.85336339698393    5.06756675593233    0.50697826498086
F          11.65887250355304    6.85030192047689    0.58198751341986
F          13.28482238429019    6.59792176793950    1.95651113669759
S          10.25877321240735    6.34958075193852    3.17020669242400
C           9.46578045189600    4.98272556968149    3.87965703949593
O           8.45261941386004    5.09295641040403    4.73177945888225
C           8.02119132528841    6.39589288466916    5.06509100526001
C          10.03022234326150    3.78025752845096    3.49238159986815
C           9.61651848280578    2.50747499179146    4.01723342432431
C          10.48301266775524    1.47595616497547    4.09531523611254
C          10.27544232494969    0.14729072466191    4.53968604127415
C           9.08996303168933   -0.59076564062295    4.99258037204367
N           9.32701267493333   -1.82270177717386    5.34226670448571
C          10.66968625548767   -2.01497905311731    5.16126789658398
C          11.27980614041446   -0.78860783328525    4.63140162486135
C          12.69218553446134   -0.94442569314649    4.46502517961925
S          13.73595089884858    0.16392822218391    3.83695976278063
C          12.94608420269857   -2.27712283735227    4.94974805018852
C          11.67915844376018   -2.92762528785719    5.34081215367421
N          11.92143939657736   -4.19175964088236    5.79026955249701
C          13.21288553092274   -4.33458313839119    5.77541805229587
C          13.94714572581263   -3.15591086623119    5.28785322824271
C          15.34653664377378   -2.94973798206124    5.15103619852331
C          16.36072056468305   -3.55240015595791    5.81687353581364
C          17.76026960119204   -3.45865493613873    5.30769967346040
O          18.20895601884064   -2.61136903135079    4.56988580847442
C          18.45473351372338   -4.61363911368576    5.89953760048108
C          19.69673063134223   -5.10610926775252    5.61674583838869
C          20.15975218555421   -6.24182789106259    6.31726458070067
C          19.32392124142479   -6.84820369514697    7.30157721158700
C          19.79642198716438   -7.97754896734855    7.99766353694585
C          21.04234134158829   -8.46630971309051    7.71707393094543
C          21.87753087284351   -7.88644849316617    6.75175917897429
C          21.43466796223385   -6.79004221434155    6.06594500537649
F          21.49581376014895   -9.54219928274763    8.38261376455670
C          18.03995716967350   -6.31925187887575    7.57099637967633
C          17.61259084141994   -5.21792931754667    6.88024262399567
C          16.37073285346160   -4.45582892303072    6.95295697165216
C          15.49653132611039   -4.42318367281165    8.00472614669736
C          14.47655261483940   -3.45318231113151    8.12116588666841
N          13.68580968221395   -2.63704351978117    8.27987389800776
C          15.59153532428777   -5.27599334211615    9.12409792269112
N          15.62995552521468   -5.96552352188907   10.04012155097244
H          23.71413608243467   -2.76199486500848    0.44380154958808
H          26.84930785951370    0.12496793343392    0.65141566714447
H          25.22060757739958    1.87770910028213    1.31281531613222
H          21.40594807199064   -2.11865630303107    0.93468986991813
H          22.89480799985066    2.56350974520169    1.79411480272845
H          17.67037334651906    2.82340520848279    2.00923816200357
H          17.04991123573646   -0.40232416270014   -0.21774805539036
H           9.92560942521468    1.85928418720557    1.04059756849789
H           7.19271597031623    6.27175342157393    5.75874976613046
H           7.68557626653423    6.93575991785987    4.17451766394012
H           8.82617602552638    6.96163301552726    5.54341239102358
H           8.60454108430454    2.43755892949406    4.38945651365880
H          11.51428545687100    1.65774831845092    3.82125464207801
H           8.08986550932844   -0.19670452846293    5.04288087549114
H          13.65745231662965   -5.27654664570175    6.04716453487031
H          15.63671995495791   -2.24505523937750    4.37422223157754
H          20.31115731667035   -4.63921691248343    4.86155606465494
H          19.18145731614351   -8.44889445422894    8.74833818043746
H          22.84949422373969   -8.31784233219415    6.57197599673277
H          22.05842027918887   -6.32580517408552    5.31724647479341
H          17.42043019783117   -6.80489113925788    8.30878836009570
