119
 SCF done       -216.533228437870          0.000931440771
C           9.75089865242864   -9.66070979887279    6.52940676749867
C          10.19217852430592  -10.82587812583014    7.09245706633141
F           9.34492156025212  -11.86125880735062    7.22083964239504
C          11.50808793941091  -10.98950789927341    7.54782515520783
C          12.38544916292661   -9.94840293338197    7.42546893787255
C          11.98391500379025   -8.72381580841474    6.85274545515713
C          10.64020247939366   -8.57632439408505    6.39865522954442
C          10.20892099934422   -7.35302649949592    5.83589213023951
C          11.09310402586564   -6.31258829484090    5.73283474523263
C          12.44106492954836   -6.47207574782497    6.17031425193697
C          12.88211337976946   -7.64189373934723    6.71991886597334
C          13.19109524430582   -5.22591711302539    5.92382892818204
O          14.34109825925538   -4.97869840354500    6.19585866364102
C          12.23548077314362   -4.33904808204938    5.19602776599714
C          10.91759548364425   -4.94283047337475    5.26218617891422
C           9.72135439634432   -4.28756320729367    5.13552409888515
C           9.59413440111353   -2.88878536398078    5.00161779382171
N           9.43218951009651   -1.75243841200852    4.98438765069897
C           8.46665177364811   -4.92384290426426    5.24698388696931
N           7.42597244086550   -5.40287499692764    5.30904952783087
C          12.66756193004745   -3.24331210246725    4.52623645246950
C          11.92880043434325   -2.53385867628887    3.53569695277840
C          11.04623269441004   -3.13101227151875    2.52549501787625
N          10.44556599215899   -2.26635621883039    1.76443149443153
C          10.83882392359487   -1.04270149500901    2.21655957520982
C          11.84615163902676   -1.18657133873360    3.28270001925348
C          12.16440698749409    0.09981099243765    3.85679631517156
S          13.19966654391296    0.38876779095172    5.09673297383742
C          11.30150297694654    1.01384460487007    3.15278744005534
C          10.51018435299312    0.28222523760310    2.13678156451490
N           9.59497728590902    1.10754617524607    1.55710561421420
C           9.69816838808454    2.23864898991359    2.19131779669072
C          10.72882720576373    2.26011844512966    3.23403565137669
C          10.99230918693462    3.35651623967950    4.12857013602859
C           9.92532207747936    4.14800092853670    4.58122008203070
C          10.16982011085629    5.13323150927475    5.50452807071232
C          11.47979610874307    5.37934121229323    5.95717699692684
C          12.54473876127920    4.61903270162673    5.48939336028125
C          12.29203414898659    3.60365365715598    4.59139058334407
C          11.43574356140999    6.46145124549033    6.91274484817322
C          10.09482152698498    6.86187471302427    7.07885347414944
C           9.17708498213100    6.02153069712848    6.22230921322541
C           8.34891125433667    6.87525105753070    5.25019849633862
C           9.22307234006971    7.70615450668292    4.31752522187664
C           8.27782709742357    5.09235785466821    7.07452985320156
C           7.34336127391633    5.78195604797094    8.05975187907481
C           9.77936236888963    7.89186879922683    7.92823331712575
C          10.79688698067592    8.52226837352536    8.66538960767594
C          12.13052021271172    8.13267388728946    8.46210766431626
C          12.45648224433929    7.10994299473861    7.59745355454354
C          10.50400720535252    9.52003042212674    9.66035660927872
C           9.29612014785417    9.67364228627672   10.25125199968080
C           9.01201687832131   10.56476614916512   11.31587672661700
C           9.84385441571808   11.64441160208007   11.87008785882209
N           9.33103063009887   12.24353894316674   12.90234382950432
C           8.13534559648006   11.62084023253985   13.13468678989722
C           7.89078905431517   10.58678619394205   12.11676684492802
C           6.67070445282156    9.88669794032907   12.39847477369860
S           5.98036369295489    8.65577922848593   11.55642335308964
C           6.19528466784942   10.49520953868142   13.61963826865370
C           7.11416189235431   11.56541082119829   14.04550134206059
N           6.71245852978022   12.08911056387881   15.23919506620853
C           5.68674009051934   11.38329539706140   15.60594184455638
C           5.29927172678158   10.33670593326796   14.64725652164798
C           4.22257795661682    9.41757930949380   14.79395336227554
C           3.79989866885796    8.86093403115288   15.95554581365819
C           2.44731640325348    8.23819834395788   16.06182832222193
O           1.71201635951473    7.94774906063291   15.14915335144375
C           2.19395673479301    8.12590342747475   17.51089714866416
C           1.05836857149862    7.72076897393055   18.15212275068273
C           1.03016927673386    7.70933795030870   19.56422391864635
C           2.18414943224340    8.12826738257822   20.28970695676604
C           2.14662658332081    8.12141033179022   21.69768833233468
C           1.00948063141906    7.71119030533166   22.33642533258515
C          -0.13413583837221    7.29328574766709   21.64132352998785
C          -0.11560736044319    7.29509705535746   20.27448320528622
F           0.97146817984252    7.70301297215906   23.67998117391707
C           3.34917152518852    8.53718809319155   19.60051264710632
C           3.35677969840996    8.52887738991617   18.23140006610137
C           4.40914413537701    8.84583528004360   17.27181755128698
C           5.75205486094277    8.88875389560465   17.53751723071559
C           6.75108819585608    8.88581869546272   16.54079493379256
N           7.59864979540109    8.80472445532080   15.77091453546254
C           6.29238082168818    8.82384194665917   18.83923523062374
N           6.76991891789592    8.78897929031425   19.88174641813373
H           8.72987095554910   -9.56839005141653    6.19352868106352
H          11.79863971827609  -11.93203246208250    7.98404292251691
H          13.40376334736834  -10.05093808549274    7.76888156007063
H           9.18914061821849   -7.27035957204215    5.49457147715938
H          13.90432840167281   -7.73865540504523    7.05376833796998
H          13.67656625021727   -2.90522873307930    4.73807592067189
H          10.92600374323187   -4.18849893886475    2.36141393297247
H           9.08667636531161    3.07900632389889    1.91034830358804
H           8.92293135275703    3.94202603728456    4.23657199172487
H          13.55022810699717    4.80607631763704    5.83379767316279
H          13.10203425008621    2.99422709336969    4.22319987663977
H           7.70287498143656    7.54278067197165    5.82133082895536
H           7.71041530302104    6.21526099578153    4.65949473510498
H           9.85463942693774    8.38556638582580    4.88621205072900
H           8.60128847058357    8.29531831964374    3.64753440394867
H           9.86507841120144    7.06560933819929    3.71642773608083
H           8.92889799627379    4.41173424012930    7.62960464067496
H           7.68419279588100    4.48824866992983    6.38496073793759
H           7.90190774208602    6.27368190672177    8.85128757687931
H           6.70009397301907    5.03657138250440    8.52190010305003
H           6.70691835953633    6.51147460545667    7.56612211397422
H           8.76304976143655    8.23880545708670    8.01886294433989
H          12.91045088413423    8.63442959706391    9.01656369093844
H          13.48576988178892    6.81688281030375    7.45662555053027
H          11.34048939726891   10.11727774329379    9.99937433540379
H           8.47081057485994    9.03295635057404    9.97128913070463
H          10.79375478098696   11.96433781242098   11.47823809052941
H           5.15756139438276   11.61181400635555   16.51538912853292
H           3.65498253586371    9.17240521435922   13.90179512247174
H           0.19183934052358    7.41082000376192   17.58747100257997
H           3.00992199186840    8.43260812701243   22.26486492619593
H          -1.00203758320083    6.98017364991400   22.19967034410881
H          -0.98405317481283    6.97745717771900   19.71741475669619
H           4.20579357438534    8.85558826572682   20.17337576271998
