101
 SCF done       -200.559249304144          0.000580557598
C           7.55666461208007   11.06426589054055   -6.94653375333200
C           6.61157376177340   11.53003702946003   -7.81817843223689
F           6.99561125308854   12.23771960558510   -8.89380925894012
C           5.24093251108979   11.29767305674934   -7.63597340054418
C           4.83039188707851   10.57917289894341   -6.54800885891835
C           5.76212133228174   10.07472307616447   -5.61726812800659
C           7.15186882729923   10.32374959729430   -5.81899738950726
C           8.10449140943491    9.83666964707738   -4.89414999903439
C           7.67903040970897    9.12320543623889   -3.80581101470836
C           6.28915480449243    8.86361275622403   -3.61781843358299
C           5.34868398884930    9.32690387413903   -4.49292626045750
C           6.09814830265953    8.05390235391583   -2.40059080101735
O           5.06366862394242    7.68365905922570   -1.90053566527221
C           7.48014996088022    7.72085973244103   -1.94124427682094
C           8.41366738862236    8.54238170791577   -2.68711668685200
C           9.67529766276743    8.88780192067419   -2.28212978460770
C          10.22125222933698    8.51859587147153   -1.03357503308207
N          10.67380907072932    8.30897122498670    0.00006574530567
C          10.52387820042623    9.74216972289336   -3.01721475079999
N          11.24806268897587   10.41839117603539   -3.59571026701194
C           7.69097981854289    6.71384017566698   -1.05877027914533
C           8.91911344594989    6.04238003916765   -0.80971641867509
C           9.99198912891132    5.77664343234493   -1.78060525607820
N          10.99089814980325    5.10000867898978   -1.29648962499487
C          10.69072876616189    4.88305154020207    0.01365110780026
C           9.36311107260358    5.42093805710271    0.33338158582895
C           9.07333508339412    5.23354706218329    1.73633367446401
S           7.73821922746047    5.76745236571402    2.53826400106230
C          10.23473539869174    4.56641602826244    2.24818015857489
C          11.21179161590757    4.36412001514645    1.17459220432360
N          12.34132173907711    3.77016111040239    1.65894656959095
C          12.16530342144081    3.66072437359391    2.93865365705071
C          10.87122960523827    4.17189530665408    3.41893457398010
C          10.39161843065952    4.19253139528868    4.74019273069199
S           8.68357483760340    4.24345832379103    5.01841811989191
C           8.86833138133595    4.21852773804969    6.73658355529204
C          10.23831572783877    4.21526525300388    7.09589163585814
C          11.10609486020287    4.18384201447458    5.96695528958839
C          12.49127172890992    4.19428568734118    6.16761074869617
C          12.99050287746817    4.17456758929312    7.45652073265099
C          14.43819457486965    4.10445034440289    7.70058196770192
O          14.93720826809054    3.95219100397570    8.78551340280869
C          12.12018515598991    4.20271557988060    8.56572182920701
C          10.76449682552282    4.24011506008579    8.39618536203972
C           7.79719123115205    4.13034959792318    7.62862730963972
C           6.46710388363446    4.07165718787370    7.31544692495735
C           5.48882601043774    3.76721966407576    8.28121030228415
C           4.06134681125654    3.56333536220194    7.98310669009100
N           3.36719824951978    3.08806676377506    8.96802823374534
C           4.25093707437423    2.92700883571604    9.99834426181987
C           5.58734962019332    3.42306556584743    9.62264964158463
C           6.49148012548995    3.22362828831044   10.71760085137148
S           7.99092468277100    3.86406899953565   10.98531283365959
C           5.75392391757309    2.40852618900880   11.64675237582283
C           4.34287416828892    2.32532556713328   11.22527367605911
N           3.62824157811833    1.57111391989508   12.10503945897775
C           4.48065178204591    1.15406763074097   12.98963773924931
C           5.86834281678802    1.58602238422295   12.74575560502384
C           6.96192387176886    1.17862463286430   13.54927025418196
C           8.29669298043439    1.10862657534579   13.29407287864157
C           9.21852777167148    1.00250447066786   14.47148579311894
O           8.90045656127112    0.71918234912843   15.60187427295660
C          10.54813613550942    1.35985228093543   13.95530397348022
C          11.71632657190507    1.53182753600458   14.64050604811528
C          12.88451419848247    1.88831424016421   13.93227834547669
C          12.82139367112146    2.06946324897876   12.51794021261461
C          13.99686224237661    2.41861076012213   11.82315789678537
C          15.16664121574325    2.57034175429529   12.51730519714440
C          15.24524158335334    2.40014973748571   13.90713631630797
C          14.11480765024457    2.06484880529422   14.59780456774029
F          16.29245716049105    2.88738871477861   11.86312682053655
C          11.59493224334775    1.88438117978743   11.83510047290270
C          10.47690367850551    1.52809108023263   12.54197409868343
C           9.11317358454632    1.23662468185219   12.10806870557446
C           8.73945831680396    0.96669726013474   10.81509986320824
C           7.47819453040375    0.45585193342108   10.45534997959556
N           6.47224833315262    0.02220529945177   10.11137140569944
C           9.56578475829136    1.13917485058329    9.68627918794055
N          10.15659680249814    1.30756762007139    8.71594830544789
H           8.60276320794675   11.26530185630681   -7.11692288753004
H           4.54181290432530   11.69027625973489   -8.35714574821298
H           3.78046308193748   10.38716475142717   -6.38626693230400
H           9.14990832023506   10.03247029106159   -5.07389687794462
H           4.30087905443106    9.12539865070015   -4.32794980476649
H           6.81748863527267    6.34768495765127   -0.52821499560872
H           9.96104526815390    6.03756616884237   -2.82439717961761
H          12.89929747236445    3.15562426448505    3.54018217677982
H          13.17191875778366    4.22482773408275    5.33182841647000
H          15.05809296236148    4.18501385381468    6.78723745838548
H          12.55821267879520    4.21749054224518    9.55222030962323
H          10.10907214186889    4.28981691941925    9.25013899169336
H           8.06940268026914    4.05167700316728    8.67156632329584
H           6.14074431042113    4.19052053676117    6.29015036550951
H           3.59870644938060    3.78312658945799    7.03618994194139
H           4.16989468575055    0.52953384653652   13.80867382386106
H           6.69727776751884    0.90851302054826   14.57002186477398
H          11.74952304000057    1.39371011884733   15.71083319042445
H          13.99037702964679    2.56245507089733   10.75363779111977
H          16.19522916991735    2.53626428528994   14.39924354620423
H          14.14936373426818    1.92713381995239   15.66801109358546
H          11.56861076596275    2.03381067808951   10.76697375358836
