93
 SCF done       -195.278364459215          0.000613560061
C          12.34478558922460   -5.37160029749902   -6.29782343789703
C          12.14962496153745   -5.71894944016492   -7.60585313871519
F          12.78864340090695   -6.78901967709353   -8.10847781566098
C          11.30032560716911   -4.99759683604186   -8.45681834861788
C          10.64222268843233   -3.90532990657675   -7.96456286523174
C          10.80801432775204   -3.50114781602901   -6.62371288044692
C          11.67670034928447   -4.24771911498050   -5.77413289405483
C          11.86797713902090   -3.85571276735626   -4.42891414486867
C          11.21393787225175   -2.75135335489630   -3.95192713142906
C          10.33641515679012   -2.01666403908345   -4.80286156422114
C          10.13417494039318   -2.37357653594825   -6.10533409471922
C           9.74376919083251   -0.89548381941472   -4.05125573172472
O           8.98825901386193   -0.04240342354668   -4.44953635198334
C          10.22599984980334   -1.07424585575719   -2.64873388600628
C          11.25835162455506   -2.09228559637423   -2.65066977629925
C          12.23585219180303   -2.24578960805047   -1.70372366198070
C          12.40940268888118   -1.37340664405308   -0.60775713993230
N          12.63955684868202   -0.64644603250137    0.25000186034898
C          13.25024880885650   -3.22353489690617   -1.77847761322045
N          14.08035951185619   -4.01528580314330   -1.79193825904456
C           9.63398728762517   -0.40610083828723   -1.62897724041055
C           9.71246407819901   -0.70781963515615   -0.24180208161716
C           9.79556619666922   -2.04169197480664    0.37361836368093
N           9.80334758362668   -2.02885190477294    1.67325092466323
C           9.75777060280009   -0.71485328423737    2.03159532907573
C           9.65925652910984    0.13765810878495    0.83935140329335
C           9.67982793625138    1.53087443219299    1.21134265905835
S           9.69803454337653    2.80619554305651    0.17997829614309
C           9.74981359852361    1.50663510049621    2.65097655155234
C           9.81035375719365    0.11346866947540    3.12495989235581
N           9.93450711386147    0.07203222178205    4.48211517608303
C           9.97870373039377    1.31101821657796    4.87023923208811
C           9.87579951511526    2.28592048591621    3.78122910067605
C           9.88015006765721    3.71304409368147    3.91019280752865
O           9.42315478045137    4.34864974709704    2.79408783666031
C           9.47673000706987    5.70462521372209    2.71757066272138
C           9.11753174344391    6.37176542014907    1.57799303190608
F           8.67310901174773    5.82708610244915    0.45542770588851
S           9.28809885331543    8.08256840705588    1.68883157180373
C          10.30931386459501    4.32854519412785    5.03440434304720
S          10.41453643219729    6.04186907462181    5.30086917985173
C           9.86932243470607    6.60849085804671    3.73372438752823
C           9.82451142079718    7.93579005921462    3.34600438172647
C          10.20351540502771    9.08495253989818    4.08684727108697
C          10.33765079023137    9.20207095918045    5.54676805979884
N          10.83733385378898   10.33095615627421    5.94613070656070
C          11.09369489509515   11.04792308259687    4.81675263644671
C          10.59986742988649   10.32287018588402    3.62759082703660
C          10.95897871506683   11.03034444428232    2.43094034725541
S          10.42569390887980   10.80029230867362    0.89088249786528
C          11.87194570376922   12.04002134167842    2.90552515971544
C          11.83412683936406   12.11446461293981    4.38382426396631
N          12.69782272480083   13.06406630375538    4.82982976164476
C          13.31374474990986   13.51121809608231    3.77729522273919
C          12.90689043874675   12.85969740629248    2.52427349278833
C          13.52094859736941   13.05275976927589    1.25207105796695
C          13.64991086759126   12.13737636127858    0.26239945414318
C          13.94387436531390   12.58238040965772   -1.13447134665634
O          14.41339078935624   13.64279676417100   -1.46924607831164
C          13.47000278844942   11.47652925119656   -1.98619341991851
C          13.37881676114233   11.42045684339098   -3.34766511643727
C          12.86981943827399   10.25234277697685   -3.95694877657243
C          12.45208752223617    9.15955066176423   -3.14031642093467
C          11.94207157934316    8.00042607295784   -3.75746142820113
C          11.86493696443311    7.94551399065578   -5.12153679616567
C          12.27229479108867    9.00783677880207   -5.94112810152960
C          12.76549487989441   10.14197377899176   -5.35901735668835
F          11.38614683493983    6.83910558534611   -5.71454746683968
C          12.56065313360270    9.24209266395231   -1.73357031744328
C          13.06811367135752   10.38047116635269   -1.16655534644687
C          13.33349046855644   10.71991550349129    0.22400713461508
C          13.46035447258459    9.82936860318624    1.25675933896175
C          13.99696947859622   10.16689644891511    2.51565874292773
N          14.46620284171020   10.37001199119230    3.54357086044811
C          13.02347517912258    8.49109514579868    1.22094266287131
N          12.60820810078636    7.42325737774725    1.30479055584365
H          13.00870374298542   -5.94818756442079   -5.67287627879979
H          11.18558694757583   -5.31961817091788   -9.47963581139143
H           9.98332592523997   -3.33352736414637   -8.60041877343414
H          12.52415041898742   -4.44301482488006   -3.80612145613111
H           9.47077073430721   -1.79832877745365   -6.73358762800965
H           8.98961021366679    0.42209642251285   -1.90950225634812
H           9.79734473353570   -2.97293578399510   -0.16641729686244
H          10.05982749262220    1.54561649580387    5.91672624227376
H          10.66188913638005    3.75977523289838    5.87518538546755
H          10.02569345677123    8.46266044161477    6.26217036674374
H          14.06231492356138   14.27952000945026    3.85616747477987
H          13.90047949787644   14.04722481164699    1.03877290887496
H          13.69310264351831   12.25704218708234   -3.95358910101102
H          11.61914618050412    7.16332739556853   -3.15847799710683
H          12.18698939612042    8.90699324431349   -7.01150889080540
H          13.08438127837335   10.97316900691943   -5.96964156598582
H          12.22822144417451    8.40902400511181   -1.13421204427598
