122
 SCF done       -226.433004459286          0.000349157430
C          -0.87585045808339  -11.88265292581720    0.98941897743191
C          -1.71764586758166  -12.76912369329439    0.37704843754247
F          -1.96828984703349  -13.95509653427786    0.96029055782780
C          -2.33930020618617  -12.49166511359874   -0.84790731832504
C          -2.09664697816260  -11.29126264244080   -1.45582736952158
C          -1.23707962980744  -10.34014711566140   -0.86915342921373
C          -0.61331212558588  -10.64229008098726    0.37658265229568
C           0.26071581687585   -9.70791306857993    0.98021936756994
C           0.49611572828905   -8.51274905988388    0.35782974063575
C          -0.14136023074925   -8.20892100559883   -0.88042917095597
C          -0.98287363869876   -9.09520207565697   -1.48795677194645
C           0.25498623743888   -6.85480591752393   -1.31539065150424
O          -0.04397986659674   -6.28183347649214   -2.33800684317005
C           1.05813389792471   -6.30784932606136   -0.18792684129978
C           1.36409167466935   -7.39448454813457    0.71274692399512
C           2.45410981465491   -7.46505442653943    1.54381605442214
C           3.43976834706426   -6.45930616403857    1.59317157191368
N           4.27700226515448   -5.67356224284313    1.61181234279673
C           2.75666173373245   -8.58093129272612    2.34748963488615
N           3.02947161513085   -9.45694364453525    3.03752571724428
C           1.28326042630149   -4.96624680184678   -0.10767171885904
C           1.60465057970348   -4.17578558191722    1.01519098231433
S           1.32880525518024   -4.65390661214681    2.66430047906902
C           1.83867238387138   -3.10645735719183    3.25301485039952
C           1.85197615355406   -2.73503272229567    4.68160928872060
O           2.14909042416354   -1.62773644421453    5.03882832014224
O           1.51277139862521   -3.68848727374194    5.55811313453085
C           2.20500961816686   -2.26669877893015    2.23419505516079
C           2.06655268119028   -2.85268810698258    0.96195425986855
O           2.31249198622409   -2.29821411421903   -0.23131453992945
C           3.02272357775889   -1.14108722929960   -0.33133194491710
C           3.05489237885935   -0.48630850369211   -1.49893736620535
C           3.77429037273085    0.73355563064357   -1.77604574305509
C           3.56388457535429    1.36194947308786   -2.98274404254037
C           4.21525491116619    2.57527030878125   -3.28819040981184
C           4.16143685124490    3.40923154091656   -4.39834373037949
C           3.36299737708167    3.25860658512347   -5.65042506525336
C           3.79043228306880    2.00950580978034   -6.43832318519462
N           5.14532063895796    2.20394191538082   -6.92746231706617
C           1.84191481147959    3.24894471542555   -5.35746284568350
N           1.35766521041682    4.42627129939819   -4.66918188342457
C           5.03009784910993    4.52994124542922   -4.11978434863490
C           5.32006834097307    5.62860658174027   -4.84135391292190
C           6.21789849325726    6.69251319050986   -4.30846036780989
C           6.83009086613796    6.38903954176021   -2.98308495344215
C           6.54578770312451    5.27585291440580   -2.28193496045239
C           5.63139970239740    4.32555388291305   -2.79544794503775
C           5.12780576771023    3.14067597104248   -2.30013741835430
C           5.34413833454767    2.46169717357076   -1.07885479837861
C           4.68800323291064    1.30206812355986   -0.82815130757387
C           5.40786053480399    7.96627609844727   -4.28852062183559
C           4.80969599008839    8.44447316420703   -3.19396183816980
C           4.06797510262300    9.67391060585019   -3.13920478405412
S           2.90282340430096    9.94094378064547   -1.89347979283454
C           2.53425187737415   11.52824408634382   -2.49530163811145
C           1.53480427394062   12.42806409463196   -1.89460119204739
O           1.30533544665326   13.51167282472284   -2.35881191135287
O           0.89288649532893   11.98044872808381   -0.80604628276682
C           3.29105151162542   11.83301723772388   -3.59745019285048
C           4.16016641619648   10.79077097350224   -3.96500621355911
O           5.07805268751986   10.77175551346104   -4.96436243413776
C           5.31614377710467   11.79738742274982   -5.78559577106310
C           6.32368791795877   11.71397999905583   -6.69059008398991
C           7.12714510653874   10.55092002385792   -6.76506678533725
C           8.15298185385550   10.20645825819487   -7.59064468119660
C           8.52543919737272    8.76840249423342   -7.65143370635199
O           8.15854678723522    7.89908872707282   -6.88590195303723
C           9.35288793202788    8.62482040416850   -8.85884421000268
C           9.86605791635661    7.49145038607810   -9.42199048448606
C          10.60262422436463    7.59078016650478  -10.62297412362411
C          10.78706083778471    8.87011349494061  -11.22395666352791
C          11.51250638575459    8.96201902940056  -12.42742845266883
C          12.02571112280040    7.82632061647824  -12.98990609512990
C          11.85773624235398    6.55984776378966  -12.41309131164296
C          11.15465043877142    6.45240113553783  -11.24566068676804
F          12.71866480292688    7.91166457095550  -14.13886829777122
C          10.25013900088752   10.02823754098720  -10.61448190595879
C           9.54993282261056    9.90956121693774   -9.44469121453217
C           8.92392643587293   10.91604015386014   -8.58824081281066
C           9.19871134012925   12.25726250740392   -8.62222666457129
C           8.80923277331734   13.17666689536168   -7.62687968807543
N           8.56387938033386   13.95937486205806   -6.82389545212063
C          10.00177732936532   12.87051766587250   -9.60700510428136
N          10.63095821799841   13.42536321953185  -10.39021861285706
H          -0.41167643750183  -12.13136784285222    1.93095912697077
H          -2.99403862509254  -13.22966819727285   -1.28345057240805
H          -2.56403179850201  -11.05490486352668   -2.39990115457169
H           0.71579234902386   -9.95684968597284    1.92602420062645
H          -1.44939898021930   -8.85128662813369   -2.43062571078899
H           1.11042911179550   -4.40450218458866   -1.02101069626340
H           1.31774676199662   -4.54126529428041    5.14626086969526
H           2.52490202012838   -1.26022669683552    2.43359955545346
H           3.55079595408605   -0.81926087811751    0.55386413132415
H           2.47037485319454   -0.89451830987435   -2.31277414304517
H           2.87928195267444    0.92226652466534   -3.69296756655462
H           3.57159467897000    4.11783696185003   -6.29712187239918
H           3.13750364088901    1.89136155283410   -7.30817484994509
H           3.67926862696974    1.11679701024310   -5.80412788343073
H           5.44499054936668    1.40339460656566   -7.47277951600504
H           5.78292247567787    2.30438657381178   -6.14340227217562
H           1.58381144408873    2.38373640573720   -4.74487881375061
H           1.30107274769717    3.16996606206793   -6.30455349129356
H           1.56746716717055    5.26179108601001   -5.20538655381967
H           1.81373777162513    4.51478713752239   -3.76665012702826
H           4.89506745446956    5.80522366344417   -5.81983796051949
H           7.02297004581494    6.85274548639420   -5.04396497213784
H           7.51790540914532    7.12954137064712   -2.60389547992740
H           7.00934837226783    5.09177049105797   -1.32353134815090
H           6.03181297237305    2.87666958405946   -0.35670013445299
H           4.86218389439266    0.78252906314552    0.10009999217305
H           5.29180318501414    8.46078047781082   -5.24010983124345
H           4.86483166294044    7.88874562946123   -2.26657090560095
H           1.16811127271647   11.09547195990235   -0.53088699961865
H           3.19686654042959   12.78322862514729   -4.09014575286785
H           4.69102822920627   12.67749926359454   -5.71581455956481
H           6.47761230529311   12.54479694414312   -7.35609859879939
H           6.83374865981744    9.74992064282409   -6.09462814353884
H           9.71038612345580    6.52902754375199   -8.95774344241486
H          11.66435298624612    9.92105982555305  -12.89752409499345
H          12.28592757017213    5.69952283736612  -12.90250318489301
H          11.01145757845958    5.48757024141822  -10.78286307104717
H          10.39984142190831   10.98108532517408  -11.09656965673165
