142
 SCF done       -237.114500364432          0.000970005241
C          19.23384845428926   -0.73765788397332  -10.20696807765974
C          19.50410461366869   -1.02326223920051  -11.51605413396716
F          20.77992942705311   -1.19397840234883  -11.90666319228822
C          18.49598280878810   -1.14726200831094  -12.48203413269751
C          17.19339220717776   -0.97536400214532  -12.10460993415793
C          16.85723957402990   -0.67882332023424  -10.76772726831164
C          17.89696449255376   -0.56132572577007   -9.79943430598401
C          17.58388022283719   -0.28211687250289   -8.44935806028436
C          16.27412660698245   -0.12336835248946   -8.08266181180035
C          15.24019467701340   -0.22061761895582   -9.05914097037725
C          15.51479475731390   -0.49606224705079  -10.36760930401197
C          13.93251067818561    0.02294871615190   -8.41728319465015
O          12.83631267010096   -0.02522022691248   -8.92349535938578
C          14.25456141653798    0.40090447439908   -7.01199631293764
C          15.65772788208895    0.10499458758411   -6.78058767569371
C          16.23734093478920   -0.15425038052010   -5.56715751339792
C          15.50997977615484   -0.24541341768344   -4.36162794566624
N          14.95359401936914   -0.42433401839469   -3.37363254486759
C          17.60644230696296   -0.44010074034482   -5.39798053502638
N          18.72254319208166   -0.63125842726397   -5.20842292361044
C          13.33704684631973    1.02506360024356   -6.23864717183792
C          13.57223780208117    1.73650682743677   -5.00504105047865
C          12.61434787309945    1.66922192559612   -3.98604711787460
O          11.46051050975015    0.95870582072064   -4.19152298946548
C          11.46212266366526   -0.35569539171417   -3.64068620050099
C          10.04990558138060   -0.90663171232356   -3.72315704755839
C          12.86247541079686    2.28863184963962   -2.74737080252162
C          14.03556728711780    3.00908488082559   -2.58088558689806
C          14.97168012304691    3.12623677572223   -3.60976790308347
C          14.73920198198966    2.48659832305915   -4.81568079315800
O          16.06533919337160    3.88099050430984   -3.32881827840068
C          17.08080404873189    3.98492223867335   -4.29753397345075
C          11.87205094006690    2.16027770808065   -1.69187410896071
C          12.15856379976442    2.12151404322827   -0.38324708368468
C          11.20190470161545    1.91909705204816    0.68411963588339
C          11.65068812629192    1.49136263645265    1.91060125703926
C          10.73967240261381    1.23253699127695    2.95733342340258
C          10.93924612670189    0.77599806810540    4.25438963779350
C          12.28586333561402    0.34407034438168    4.75371357969394
C          12.41336330454417    0.17451084301765    6.28386934821921
N          11.94719107524675   -1.08932004406123    6.83901579498399
C          12.72266074106045   -0.95667718711431    4.01592969217383
N          14.10941554500367   -1.32862836312556    4.18093579016104
C           9.63982412219566    0.76574914449686    4.89152569876213
C           9.22151514142011    0.48158785341675    6.14038844924751
C           7.78540914513558    0.55213289918084    6.54221412336070
C           6.85771345089719    1.03208386976171    5.47895337139106
C           7.28131056897189    1.33566233882987    4.23925196053711
C           8.64811059289192    1.21608463575484    3.89628404484892
C           9.32765543034225    1.49097946131998    2.72969906440396
C           8.89297024221633    1.95571480112369    1.46580873682812
C           9.80086294758393    2.14864726304806    0.47781412795590
C           7.68454786420742    1.39518687479548    7.79452467989683
C           7.99149123619698    0.94712523775307    9.00593688784575
C           7.90532962119965    1.75414423788393   10.22972671866945
C           8.89579621753669    1.77847217546950   11.21808639860802
O          10.08960023969020    1.12002835701521   11.21380185972778
C          10.73611443916172    0.67372420093265   10.03288410741392
C          10.79217661723072   -0.84661658042868    9.95457955534449
C           8.65738042680159    2.52712118375674   12.39182499829285
C           7.44357600687882    3.16945172421069   12.57923310430622
C           6.47637684138861    3.19153947452425   11.57392727951885
C           6.73225376048426    2.49770403304021   10.40399313450893
O           5.34768419076444    3.89131227539091   11.84701433048623
C           4.39997979898332    4.06665579841568   10.81933739904265
C           9.66084110187097    2.69609887529865   13.43823990955935
C          10.94838241106270    3.05632499255120   13.28995328410246
C          11.66313736639611    3.35163013908117   12.08799449593592
C          11.26490538839470    3.84190840718810   10.88574913120490
C          12.17953410002578    3.67578687071280    9.71953787360999
O          13.35367463156608    3.38304527213185    9.75435836254133
C          11.33561158701096    3.87722596469304    8.52709603323483
C          11.66570804162272    3.75144357758593    7.20778935261379
C          10.68251311324306    3.99216546175704    6.22311889827416
C           9.35892829034761    4.32801834702927    6.63036529508375
C           8.37748257529933    4.54527477717412    5.64380272731525
C           8.72398770227205    4.47102480761500    4.32375680495740
C          10.02981270788115    4.18909143002405    3.90367175391021
C          10.98582992519485    3.93682761425624    4.84750884732808
F           7.78683537745204    4.68703357208535    3.38329469441737
C           9.05063659846912    4.46730523745942    8.00393627743078
C          10.02803926131521    4.26128795211156    8.93941733152905
C          10.02187778642872    4.39928074914038   10.39381579902427
C           9.11882588027182    5.13760761676715   11.11152471436545
C           9.31523363005843    5.48356526749343   12.46347273073288
N           9.47507357384227    5.82655911196485   13.54627630333944
C           7.95806468221002    5.70380450280205   10.54912594362279
N           7.00301072797737    6.17500229951559   10.12020792059405
H          20.03506493302647   -0.65389472191085   -9.48950602008658
H          18.76973432899537   -1.37574801959417  -13.49972202548437
H          16.39954476861961   -1.06636576377371  -12.83037596097863
H          18.38950589748988   -0.19524759398193   -7.73737283700489
H          14.71596268530526   -0.57694315571713  -11.08931715332711
H          12.31409520001143    1.01352486288723   -6.59936333123608
H          11.80950641350627   -0.32516511875438   -2.60025019760723
H          12.15936801272931   -0.98314841270702   -4.21476018761068
H           9.37356126205234   -0.29602271811760   -3.13069258582444
H          10.03136410375195   -1.92509843585155   -3.34612147377610
H           9.70918106079270   -0.90035628337809   -4.75501050528927
H          14.23665409773359    3.51957256914920   -1.65282489928029
H          15.43046098008550    2.57626278118308   -5.63935377666893
H          17.85371995563754    4.60544900624912   -3.84753041135248
H          16.71904392198752    4.46671373309708   -5.21172313549276
H          17.50404111696104    3.00506461084220   -4.54301659165132
H          10.85778096441107    2.02166797085961   -2.03969832806935
H          13.19523125120772    2.17119968288430   -0.07423414121598
H          12.71005907650558    1.34199739739860    2.06548279046125
H          13.00084155738512    1.12614265484139    4.46110999454238
H          11.86851292349570    0.98845126894640    6.77283346779279
H          13.46263475286588    0.28205531696049    6.57253074731155
H          11.08048595575682   -1.37112802393317    6.39297907244469
H          12.62198361423071   -1.82519769994034    6.66022656330309
H          12.53890100898311   -0.83495946197641    2.94681812639245
H          12.10557268578586   -1.79386814166202    4.35545955517814
H          14.72209744252905   -0.61517829548445    3.80245717986883
H          14.34897792392239   -1.45872948439487    5.15729355518782
H           9.88721971831878    0.18952652629152    6.93639296681966
H           7.49348451659993   -0.47474596357727    6.81811931785087
H           5.81893193976896    1.12393637277794    5.75824058542734
H           6.58818540401279    1.68600851456757    3.48845722064551
H           7.84459771661874    2.15955063411342    1.30635287825669
H           9.47857242414077    2.51628786614091   -0.48377908653895
H           7.41401405816270    2.42728961649403    7.63509764236617
H           8.27541532520321   -0.08901761872069    9.13554181802528
H          11.76242166151407    1.05466327045745   10.09002546230547
H          10.26149544676948    1.10463447348953    9.14659437160083
H          11.34315003775448   -1.23445157664258   10.80677117741823
H          11.29772077255759   -1.13419083443859    9.03421360401262
H           9.79607044779054   -1.28311382839146    9.97260936936454
H           7.25153353318502    3.71006758733516   13.49272720872809
H           6.00293012822662    2.46476704318794    9.61083663761611
H           3.62045816600631    4.69466146167224   11.24614548634884
H           3.96508209992241    3.11217136807641   10.50488108650998
H           4.84319078660965    4.57646628073915    9.95930576572776
H           9.29298639547606    2.54423460460065   14.44487073487795
H          11.56400793684517    3.07255359054244   14.18083908836621
H          12.72143059900642    3.10206962930403   12.12194348968178
H          12.67205464586311    3.48836249837298    6.91814710342544
H           7.36503576644466    4.78732209775572    5.92770087231828
H          10.25153630883609    4.17180984163455    2.84906291064848
H          11.99673457449016    3.70826815816432    4.54776071188312
H           8.04842618777915    4.74757412013380    8.28735672168203
