91
 SCF done       -187.291250518638          0.000587237383
C          19.71337361142250    0.47244279410162   -6.30725390916628
C          20.66026784949208    0.98590196977874   -7.14971848258736
F          21.12589960856313    0.23165971242516   -8.15939128191790
C          21.17296383266351    2.28274981403345   -7.00378819735998
C          20.70967154565614    3.06671564895214   -5.98436524323975
C          19.73133600336071    2.58894336366460   -5.08794001991140
C          19.22639566254531    1.26487227935193   -5.24964843980101
C          18.25444816550165    0.75882632461777   -4.35549680382852
C          17.80080436897664    1.55440448308294   -3.33784608521555
C          18.29330510527723    2.88515650418442   -3.19429655181011
C          19.23825796368907    3.39478340203535   -4.03831729820723
C          17.61913481876196    3.54089261775955   -2.05934859897349
O          17.80813140535562    4.64535570619303   -1.61047816293668
C          16.58077241360911    2.56280112001809   -1.61226920192576
C          16.84882975244647    1.29500652212788   -2.26288857716417
C          16.46588298162445    0.06336566739066   -1.80402394820530
C          15.77193629815356   -0.13015262994135   -0.58968956904971
N          15.27189739049548   -0.33391637257606    0.42289755150156
C          16.81334643318250   -1.14782318634424   -2.43850398130804
N          17.06397412678639   -2.15079219659965   -2.93597982658387
C          15.55603440664554    2.96993026407567   -0.82369289115528
C          14.31570838368657    2.31527737752338   -0.59804129511309
C          13.59030801125035    1.41982039069689   -1.51793542522378
N          12.43429214465673    1.02749926498564   -1.07899274878559
C          12.29507434093294    1.59200287104991    0.15619292017552
C          13.46040429399217    2.42925953297521    0.47080268491172
C          13.30099726884894    3.04499333788536    1.76531407903642
S          14.37591634556090    4.06533854900887    2.47884446179854
C          12.01767981951335    2.58294399678050    2.22320850091387
C          11.42731707970275    1.68264949093129    1.21123564051699
N          10.20122885221221    1.23777683513232    1.61356559824636
C           9.98864550076928    1.79274205194081    2.76516702230315
C          11.07814942803699    2.66671623396690    3.23202288384810
C          11.05237493247890    3.39208874843482    4.44401433583635
S           9.61711692473438    3.33630741636840    5.47060104299772
C          10.36451027540596    4.40667377115693    6.58040584444626
N           9.93149366031958    4.92570735541444    7.71906331730415
C          10.82590940441281    5.70346722209466    8.25700594715877
S          12.34715805646051    5.84568463706904    7.32649379493958
C          11.66704999609815    4.77593630826750    6.16561237645597
C          12.04979243664711    4.20200270437946    4.96146703280225
C          10.66067990068020    6.39377652626229    9.47505579461970
C          11.65120105369879    7.27151498385298   10.10660791998543
N          11.27045073681265    7.77244192766356   11.24321300604869
C          10.01848436036378    7.28004788686889   11.46388742979961
C           9.59398182148334    6.41357831400829   10.35011159113359
C           8.28454501205960    5.87771871231760   10.60775732260535
S           7.37731160907669    4.87507507001101    9.67851733499609
C           7.93300390397815    6.42378710778646   11.89704028338853
C           9.01701636345473    7.28302854996387   12.40119963927537
N           8.70807371159064    7.76346960793125   13.63789288336764
C           7.56889437205144    7.22392458367362   13.95142326160602
C           7.00744777326504    6.34935404694726   12.90844032260568
C           5.76739229249876    5.65468802758815   12.97176621686410
C           5.20547383130267    5.11800540946916   14.08200889434613
C           3.75000428554607    4.78040304719997   14.11931516438452
O           3.00241093581555    4.71135449989987   13.17427641640790
C           3.43459420971346    4.62236059910411   15.55100158417872
C           2.22070737913157    4.41696522435908   16.14238501114175
C           2.14781401459082    4.31027946800518   17.54881581553430
C           3.34034487605336    4.42900173619270   18.32209261759909
C           3.25933860370135    4.32788730759679   19.72449753716024
C           2.04345686909894    4.11395175871760   20.31249469132349
C           0.86041707050957    3.99181461093392   19.56982749771041
C           0.92040540201335    4.09018713536944   18.20762809176781
F           1.96392629375873    4.01518928755541   21.64991315302915
C           4.58491407249244    4.63723929006418   17.68399339061901
C           4.63263446954342    4.72385919394836   16.31839417759472
C           5.75701978408405    4.88482630710106   15.40324964997758
C           7.07160770486462    4.63102658492848   15.69104041696463
C           8.07907711454568    4.50565593149199   14.71051299695417
N           8.91404678223227    4.31819031170792   13.94577106640402
C           7.54634904865821    4.35166963268625   16.99020727153732
N           7.97442866732127    4.13475899786042   18.03216452644107
H          19.34472294198490   -0.53164171774418   -6.44751215465988
H          21.91985493104991    2.63289634895000   -7.69845462764142
H          21.08874720848154    4.06877907913721   -5.85185106203866
H          17.88477680391852   -0.24371297546169   -4.50336545030814
H          19.60506507747688    4.40155504463222   -3.90575532669858
H          15.67651023604467    3.94148773114712   -0.35230798276959
H          13.92562604693241    1.13610259153254   -2.50057594213037
H           9.08077830939329    1.60658672854050    3.31272635180926
H          12.99562974568021    4.35571713159856    4.47341954451803
H          12.61738679903099    7.50586301009673    9.69387309406344
H           7.08389965340963    7.46563868177843   14.88167693607126
H           5.19042208275750    5.59149703956712   12.05445561550452
H           1.32639854577525    4.33545577341347   15.54298771627072
H           4.15006220431587    4.41310992047540   20.32712824141295
H          -0.06953932132569    3.82280385426471   20.08905327179522
H           0.02286845664538    3.99919372061513   17.61472199148254
H           5.47076505252103    4.73048445379154   18.29223831064713
