106
 SCF done       -209.504144216360          0.000511183190
C          16.49997306475854    9.08968697841556   -0.75461564379947
C          17.42324001067370   10.09758459958985   -0.80429699285433
F          17.01545543933747   11.37336388304557   -0.70653933875854
C          18.79549938605508    9.85302096033636   -0.95504682147485
C          19.23101743312654    8.56093566325438   -1.05497158564066
C          18.32293163841960    7.48315143343320   -1.00764459848605
C          16.93049805160166    7.75296695877863   -0.85732516030138
C          15.99889619930309    6.68958197121859   -0.81631869638604
C          16.44850678904266    5.40090514919731   -0.91791025740524
C          17.84286049444322    5.13630725828834   -1.04749613492286
C          18.76327342943217    6.14405317527169   -1.09830545603945
C          18.05679830107033    3.68226794651498   -1.08743516775248
O          19.08640347126554    3.07306420490259   -1.24920155122678
C          16.70666858393693    3.07772432380608   -0.82926522313669
C          15.72677175886244    4.13290374214426   -0.92106104784316
C          14.37784351452186    3.99937309901931   -1.12930029275513
C          13.70792842138009    2.77889662338268   -1.32861207048622
N          13.08628524694123    1.82782785334034   -1.49767056048097
C          13.47133959036242    5.07613264054923   -1.24288955120939
N          12.65643887911959    5.88036320108397   -1.31929732047647
C          16.65763148823363    1.76189885701967   -0.49175469781036
C          15.62522159604136    0.97519665636284    0.07561366717326
C          15.54579153005029   -0.48169320455269   -0.12910345498348
N          14.51502964844574   -1.04789181222237    0.41626109835109
C          13.84037647795330   -0.05393969566558    1.05343843748706
C          14.55194111008060    1.24308824711115    0.89884833507771
C          13.85434827849074    2.26951971869188    1.62141819156074
S          14.28691703646312    3.83863192740438    1.86286100910866
C          12.66221219866569    1.61392295782609    2.11080245101271
C          12.69191386083977    0.17700178569636    1.75098005272866
N          11.56370932430252   -0.44415028203662    2.19848029352445
C          10.85631385807586    0.48647232606220    2.76953234340557
C          11.46821826519297    1.82088249347263    2.73214012494057
C          10.91645234572976    3.06660710504215    3.33004431086062
C           9.83597391346505    2.70478623078128    4.35831017563157
O          10.01007369890607    2.21159657509038    5.42945205452956
O           8.62383656814735    3.01361605414077    3.87648543450470
C           8.68706703229384    3.56571167741772    2.56827965354034
C          10.14662674463233    4.02749702853923    2.39979649043838
C          10.61754350436569    4.16980681507860    0.95659706797504
C          10.20909148583733    3.01924748501371    0.04629189979933
C           8.72080464983342    2.71110304197896    0.11915927308698
C           8.18243071308222    2.52156065162327    1.54647516160810
O           6.77044915770976    2.66937861238708    1.40910303757254
C           6.46357352715998    3.42304699586585    0.35067240327107
O           5.35729184570455    3.74264489537829    0.04777665249236
C           7.76727103081910    3.78277201323577   -0.40521459468880
C           7.50919433666423    3.85586567766010   -1.85742216990605
C           7.88943755348347    2.92324947104633   -2.92408332540310
N           7.42430454364201    3.23844432079163   -4.09694917007590
C           6.70660887317806    4.38746151840149   -3.91258534601276
C           6.74559073041358    4.78423411691387   -2.49583772940280
C           5.99156147687588    6.00029315346545   -2.29822773928703
S           5.82824899829973    6.78873519114803   -0.85540028350953
C           5.51529660859677    6.34872299681900   -3.59630596969064
C           5.94728933984722    5.31037990763971   -4.57299780341921
N           5.46956602633086    5.58860445688505   -5.81454343561568
C           4.80164299747441    6.69339297480940   -5.69488360889379
C           4.80209160628321    7.27892396149721   -4.34405074853289
C           4.11499823491699    8.47966011472868   -4.08992486229469
C           4.14957108236796    9.39054675580713   -3.06762046182618
C           2.99818948162137   10.35248408932583   -2.96895375065077
O           2.14576751921526   10.52603744948184   -3.80684102287937
C           3.13123846369688   10.98506967212363   -1.64841600234564
C           2.28840433353247   11.85645800591938   -1.02119055669996
C           2.61391358093404   12.31621086521189    0.27509928382743
C           3.81125739671429   11.85698573728995    0.89775268461671
C           4.12517371029212   12.31266356173674    2.19204082141000
C           3.27894946785101   13.18433315550997    2.82128820597583
C           2.09845679373483   13.64783750539479    2.22560675504843
C           1.77784716543252   13.21436360075930    0.96867307716272
F           3.57879222035501   13.62080947463141    4.05673590907025
C           4.67072958508270   10.95992381465592    0.21908724186924
C           4.33801286499849   10.53502416282091   -1.03795224870167
C           5.02310752975489    9.64073869473136   -1.96595843547197
C           6.32880805743493    9.20021349625905   -1.83716087904967
C           7.04929996114375    8.65691370975395   -2.91987585609205
N           7.66089184072914    8.22497424018825   -3.78932286150765
C           7.17523449463599    9.53271290954100   -0.75339100815005
N           7.91164663934355    9.76238355027784    0.09488695337114
H          15.45112826366199    9.31474719701031   -0.64068447895705
H          19.47657096859538   10.68851217993987   -0.98793751824337
H          20.28295278786988    8.34820505508151   -1.17099255410400
H          14.95325057926505    6.92103396434649   -0.69032412101283
H          19.81471414026061    5.92240911050450   -1.20325141601444
H          17.59042193501683    1.22853159798885   -0.66602434741021
H          16.25741421483414   -1.05611272564203   -0.69672748268290
H           9.92613405905313    0.24226246643425    3.25304562404475
H          11.74192660086416    3.59180151201197    3.81953337811547
H           7.99236291209062    4.41293229199549    2.55152495733732
H          10.22276451517900    5.01585659593607    2.86693049818876
H          11.70279199394565    4.26978026871287    0.95240082787072
H          10.21744821486209    5.10346938389818    0.55629248846588
H          10.75964846814590    2.11378211903510    0.30332795980993
H          10.47224871619022    3.27276331200274   -0.98219940148272
H           8.52795112927460    1.78238523364962   -0.42946531451277
H           8.36172083291104    1.51716777583035    1.93839576282658
H           8.04847977866520    4.78251866708687   -0.04798766301713
H           8.49177458133962    2.04037950403634   -2.80132607756527
H           4.30847401216008    7.13390780922230   -6.54466203821559
H           3.36188792541192    8.72056875413087   -4.83895903944687
H           1.38223905390233   12.18899510635199   -1.50505904567818
H           5.02659382477457   11.97832866679107    2.68138218817094
H           1.46945157400295   14.33405322786840    2.77011978080037
H           0.87335935307845   13.55690347531116    0.48908849256267
H           5.56514545544114   10.62311831525042    0.71811948256124
