134
 SCF done       -260.904871406014          0.000880737463
C          -5.30511483307684    5.28937905079289    3.37252445754774
C          -6.11672403172062    6.24143577888064    2.82114489211167
F          -7.38078616401282    6.36912207129546    3.26029823458698
C          -5.68162000832449    7.10396274657688    1.80465342798503
C          -4.40037992554198    6.98909794119230    1.34247115678292
C          -3.52147328922644    6.02132465530663    1.87162224431334
C          -3.98072801873713    5.15809211661608    2.91038215658527
C          -3.11233297448318    4.19461692009533    3.47204088413574
C          -1.82916662655898    4.09258753531449    3.00313468047145
C          -1.38844230386755    4.93322525619521    1.93778520397965
C          -2.20222099361969    5.88342425877390    1.38859982264933
C          -0.01072097975875    4.57945538819434    1.56973583598206
O           0.70271865806447    5.08023219180832    0.73589401173926
C           0.32529077462519    3.38960625134503    2.42243055535745
C          -0.72155021163855    3.24640401734563    3.42465248887062
C          -0.62247216099170    2.59220602543212    4.61959660055908
C          -1.67369681158532    2.50717963569289    5.55949362011293
N          -2.49654452037803    2.39436235365845    6.35066239790910
C           0.55844828061263    1.98798537234753    5.09540638302810
N           1.50287024181553    1.51974423714990    5.55077870723987
C           1.36310971063869    2.61193849977905    2.07574444802878
C           1.79039179187400    1.33073850460566    2.60725420054766
C           3.11937555733287    1.17825079516221    3.00034787528120
C           4.16985637358966    2.21406001254312    3.02152149746014
O           4.06987205610025    3.36176115232186    2.66376851986671
N           5.30343697205077    1.59043922442277    3.54271546734651
C           5.06257081181487    0.24441220429054    3.86945483227816
O           5.88515825043840   -0.50552308458331    4.31961180819976
C           3.63970518631685   -0.00358260837832    3.52709690039860
C           2.85371774123867   -1.13209979401084    3.66747174471835
C           1.52995337793456   -1.01006607778909    3.25747719653998
C           0.99629749719393    0.17934321928040    2.74617196893288
C          -0.42501379858993    0.09249500644236    2.37803744901152
O          -1.12856392503890    0.95086256782558    1.92305457077149
S          -1.02504227684874   -1.55959786099909    2.73209597610089
C           0.57221864465316   -2.12685457049814    3.34053000540456
O           0.77030403141700   -3.23635197191515    3.73057045965678
C           6.55389152158754    2.17552992507849    3.74787077736990
C           6.82167212967489    3.44282354330983    3.41370754692122
C           8.05296367360860    4.17975183059156    3.55797282416281
C           8.04843877386194    5.47468181930917    3.07953938335195
C           9.19533217251993    6.27122762854462    3.17730888765585
C           9.41387923878850    7.58814508232050    2.77170129273293
C           8.38969861569023    8.44529985670112    2.13678569961469
C           7.54704839293453    9.20113746475400    3.21913643968729
N           8.24024954465690   10.11613939964813    4.07686197190098
C           8.89028955032488    9.43520520064602    1.07084778840744
N           7.80817767669261    9.67005881698593    0.13212591242998
C          10.76875719345667    7.90970440724550    3.14101883133558
C          11.47227803091356    9.05239340104847    3.02141333642937
C          12.90257692606569    9.12658490321387    3.42278296509808
C          13.41651469981362    7.91219462150971    4.11967992728165
C          12.69088950232848    6.78249355768629    4.25543097930147
C          11.36706255187691    6.72139155730210    3.76696723612493
C          10.39209151249525    5.73024622174080    3.78882781674924
C          10.37461830736620    4.40279175937015    4.26909150784587
C           9.23950816474624    3.65568108148062    4.15384756986175
C          13.20592158093723   10.40903004028113    4.16205272081916
C          12.92993205122453   11.61053694496052    3.67318319082769
C          13.18942834374514   12.86483282304173    4.37053208549522
C          12.15998323083469   13.78475087125440    4.57342945410733
C          10.73130245664205   13.67324207689443    4.21815706752644
O          10.16424714659461   12.76440219937204    3.65867935722833
N          10.13900712399472   14.85535889780714    4.68034890975887
C          11.06832010784833   15.69521521753127    5.33123712746028
O          10.78804654974105   16.74726899998110    5.83824555588663
C          12.36345177878430   15.00125345016121    5.24006920829665
C          13.60304062725548   15.37198757336115    5.72376769316385
C          14.64083154455781   14.47242298404853    5.51011286425628
C          14.45139817643196   13.24760122254899    4.85387016156416
C          15.68995644613266   12.47380401489480    4.66987040511856
O          15.84853962524130   11.43012949147444    4.10402504286228
S          17.05628130801600   13.36423311586326    5.43033864569814
C          16.02063206972709   14.73953126902162    5.94426446566984
O          16.43265493079827   15.69337923941187    6.53364128450117
C           8.78582983473172   15.12599056294246    4.82010637254607
C           7.76915258477897   14.57497467556482    4.14538116881659
C           7.82154778530519   13.77685374839291    2.95795380032724
C           6.90960543754441   12.83385204592178    2.61508313676418
C           6.73600258681507   12.39200895504957    1.20648919297231
O           7.47798575778201   12.63049901904852    0.27851559172145
C           5.45121862956240   11.66824017919984    1.18289956754154
C           4.79120750118973   11.11745388829512    0.12189312049538
C           3.55922677513243   10.46042031069916    0.33766020692251
C           3.02073106585965   10.40036260400064    1.65622024923935
C           1.78359950256240    9.75846810087752    1.86233312466944
C           1.13097700619604    9.20017410202907    0.79883249344226
C           1.64950398208842    9.23606427013601   -0.50256370416847
C           2.84610373411253    9.86056580418338   -0.72103779968096
F          -0.06084555108415    8.60356875258975    0.99102074822833
C           3.72746473548094   10.97378480301794    2.73848583371074
C           4.92951567843274   11.58719165390802    2.50841600537943
C           5.89493808564846   12.18808050948536    3.42422943443565
C           5.95982554235044   11.97564961525123    4.77436966409398
C           7.06182090616407   12.31594390766454    5.58728827350067
N           7.92981557711428   12.54528049559809    6.30243444266883
C           4.96559423655907   11.28889285271070    5.50253669810605
N           4.17093643994929   10.76023093783670    6.13987435511407
H          -5.67243502860827    4.64599135750882    4.15667134743618
H          -6.36737697970269    7.83710527494292    1.41038825797113
H          -4.04078467743432    7.64180303703641    0.56159975773950
H          -3.48610120668043    3.55200650911088    4.25329441209357
H          -1.83982488324436    6.52596242855800    0.60098413762580
H           2.00222774383817    3.01865314324913    1.29628531431916
H           3.22775144134038   -2.05711510261259    4.07615557738357
H           7.25980556608032    1.48819139074310    4.19290538365053
H           6.02565350971769    4.02212721007735    2.97065552866716
H           7.15176768178715    5.87578275718650    2.63019010776947
H           7.67098212964722    7.78930853279335    1.63383953263356
H           7.06049682246945    8.45548907326934    3.85379960147948
H           6.77807490000533    9.74840920598406    2.66980763515819
H           8.91219955743697    9.64879406786225    4.67263703513384
H           8.71198765234298   10.86204904461977    3.57848349406328
H           9.80118876818886    9.03441801370829    0.59547563511480
H           9.14057884310215   10.39723928491166    1.52560599020970
H           7.71313035817177    8.89054782548700   -0.50930610159336
H           7.96943441325702   10.51284960107131   -0.40686545801606
H          11.03193835324212    9.95370183674362    2.62578233120186
H          13.46639395115547    9.19772936629349    2.47372562294757
H          14.42782548515636    7.97549390676519    4.49066586382200
H          13.10765584378310    5.91779920053929    4.75047734211181
H          11.26169395289349    3.98814432767903    4.72458818500911
H           9.22543377384925    2.64174346667873    4.52177397214764
H          13.65674871168329   10.29830028484619    5.13661858477310
H          12.43009805597136   11.72399387127625    2.71980445790677
H          13.76773807104223   16.30498662669461    6.23856248211711
H           8.59841583563478   15.81819752496673    5.63105173618330
H           6.77695926951154   14.77945699477765    4.52883401153886
H           8.56067448965412   14.03046537964042    2.20740806602661
H           5.20692489652666   11.17581977255529   -0.87215032391746
H           1.35921808507031    9.70669537926579    2.85290077790754
H           1.09566127354171    8.76955897596754   -1.30151897757858
H           3.26303715990031    9.90312461994305   -1.71600965454174
H           3.29873296627218   10.91542248310955    3.72630974026767
