114
 SCF done       -214.565666584540          0.000847147580
C          15.60312602010990   16.16516596482290   -0.48257391573825
C          16.78966109018137   16.80387801811779   -0.71444425535236
F          16.81907354100061   18.14634841336420   -0.76586447230465
C          17.99302172010669   16.10957160607301   -0.90349834164102
C          17.98389437632282   14.74352909432337   -0.85395935465527
C          16.78887922357371   14.03368312400414   -0.61579186770798
C          15.57539591493037   14.75809448516596   -0.42499137702880
C          14.36681361055577   14.06937699212854   -0.17086373456810
C          14.37364699676681   12.70144692036379   -0.10584989810633
C          15.58777924976632   11.98218088324562   -0.31268410308283
C          16.76818026112878   12.62271558224013   -0.55985217019588
C          15.32732438672716   10.53420392948045   -0.21436498501616
O          16.11644522490456    9.62416231749842   -0.29702754833690
C          13.84724064663534   10.41927647370052   -0.05304807481742
C          13.31336002398662   11.74512693234699    0.19526702473540
C          12.12558455523097   12.03335638909025    0.81388443996468
C          11.26946281209446   11.06631884854324    1.38213671248326
N          10.57912566544494   10.33610774656191    1.93747159687033
C          11.67556876344987   13.34707706779523    1.06541362679597
N          11.26365658070216   14.39679023276022    1.27637017857019
C          13.21765308056053    9.23482406143034   -0.24205233553922
C          11.82197170423654    9.05259477481346   -0.45996515261252
C          10.94547757074757    9.92132192141564   -1.25447124584857
N           9.70354642741381    9.53847890812492   -1.28785732343545
C           9.63826855478897    8.42906302892809   -0.49899176543694
C          10.98263872970038    8.05634369868538   -0.02475407242395
C          10.90443065852989    6.94949810656933    0.89799018972576
S          12.13587992356106    6.22833176961414    1.70562315183464
C           9.49298734731866    6.68509417687219    0.99404796792614
C           8.73823722652008    7.59663789226540    0.10894504277422
N           7.39635089295954    7.39804792675331    0.25294161944209
C           7.27310611853772    6.50467314814546    1.19281811692022
C           8.55412616147679    6.03061623966308    1.74262857613725
C           8.69905201757973    5.03667061426070    2.76687906308528
C           9.60430315188719    4.01685312170994    2.64875307692393
S           9.43419275929498    2.79561823456371    3.83632283583001
C           8.10687143979789    3.66062844918585    4.55870130986787
C           7.85577050158583    4.88758440786231    3.92485713384039
C           6.99581821931335    5.83103169956469    4.54067604651688
C           7.15046033495548    7.28637062356232    4.18216576487174
C           8.52127282496364    7.80097157170669    4.62832935777853
C           6.15595353057162    5.40957295213198    5.55913900416511
C           5.33450237594182    6.39857075705660    6.35204748386314
C           4.17020251779429    7.06090071291103    5.59957622920362
C           6.20063608184335    4.05393753735306    5.97203077737304
C           5.32540130651216    3.33775940680599    6.87137489762674
C           5.88979205660445    2.16719998661583    7.30380973663165
S           7.37824269925186    1.78681380701984    6.53894737998344
C           7.29039196501616    3.25385533516478    5.60269904258282
C           3.91136493013489    3.58694450474242    6.98205128925515
C           3.27393517320566    4.06771835415396    5.89019133704372
C           1.88938650203152    4.20805142254812    5.63561045298006
C           0.69935092847963    3.96446947461534    6.46215674428137
N          -0.42944788346711    4.13533400587849    5.84036812283717
C          -0.10223745900618    4.49436085119879    4.55837143643783
C           1.35701024984692    4.57070221640264    4.41704306953657
C           1.71679566880321    4.92501172637724    3.07832004508621
S           3.22158783654393    5.27715929073194    2.49659632519848
C           0.45780741137276    4.97253171316581    2.37914249236171
C          -0.65395801882252    4.76219529689259    3.33278978380567
N          -1.85099879299645    4.86597624538345    2.69075211949471
C          -1.57002229523032    5.10844896268783    1.44666976988709
C          -0.13001023565357    5.16306393696396    1.15091600027782
C           0.45320422688528    5.42256594687828   -0.12067587085763
C           1.66706959124552    5.01307857157148   -0.56470758677329
C           2.33701070396333    5.73619716020342   -1.68983871623489
O           1.80875846039038    6.47219649836990   -2.48718797900784
C           3.76663963616539    5.39613978697262   -1.55659438480143
C           4.84226260244144    5.92739779057420   -2.21015774713664
C           6.13891101556016    5.46813098860085   -1.88981348341961
C           6.29649481548420    4.45524340934845   -0.89909714496875
C           7.59445601544197    4.01417890144301   -0.57151005390176
C           8.67022534495886    4.56484145443623   -1.20940754159812
C           8.53700754378210    5.56285767631915   -2.18305145265934
C           7.28420685970266    6.00084484141538   -2.51496402677978
F           9.91235471997313    4.15847080915773   -0.87847707133821
C           5.16694175841855    3.92063495092998   -0.23976464457064
C           3.92134561557718    4.38681765305995   -0.56243095633285
C           2.60407992068894    4.03710233120051   -0.04049262145198
C           2.28275391763458    2.87262980261935    0.60762290981904
C           0.96323576134400    2.48417544378810    0.90956964644197
N          -0.09325193026489    2.10996243980783    1.15851354544287
C           3.23720235287956    1.93360245622711    1.04692412966408
N           3.97947467210887    1.15997856216040    1.45717871326652
H          14.69683981371555   16.73225686449670   -0.33812473528709
H          18.89809804769363   16.66778346416158   -1.08290052832865
H          18.89788638449702   14.18689389476676   -0.99603698616938
H          13.46245757911355   14.64202380484652   -0.03844086469420
H          17.67688201358840   12.05815618609386   -0.70587585555688
H          13.84501669864441    8.34957987183724   -0.27136226355091
H          11.27479179345882   10.77483506585330   -1.82229792969427
H           6.30404108845438    6.12028808077402    1.46501460913871
H          10.33093108114192    3.89609758430760    1.86843383961762
H           6.37960876282957    7.88797088342646    4.65431681727531
H           7.05159362003181    7.43384101657454    3.10464957510621
H           8.62774994435437    7.71054092527336    5.70741894543545
H           8.63414784627437    8.84640654450553    4.35349280874125
H           9.32622349339324    7.23942177990182    4.16079897990365
H           6.02433592287935    7.17396020870321    6.69502107223407
H           4.94934944792321    5.90522728374989    7.24497928221995
H           4.06017176214281    8.09859697068117    5.90568599200670
H           3.23328271658603    6.55452713829985    5.81303991768808
H           4.32284589712720    7.03432839186625    4.52431471310737
H           5.44715825539150    1.44599164991836    7.96349537410264
H           3.38191207655766    3.22711310200737    7.85265138871927
H           3.88784613013550    4.32389552116578    5.03566210231530
H           0.70869188448888    3.67337750584345    7.49819197005526
H          -2.35039319548276    5.23266640118977    0.71675402219553
H          -0.10038259363187    6.08148407761909   -0.78270836008849
H           4.70803771605768    6.69636998312050   -2.95544257981373
H           7.73394364388545    3.24769047142149    0.17541575692944
H           9.42273915591845    5.96587031557550   -2.64847175666731
H           7.15976839919289    6.77522896170605   -3.25574644261936
H           5.31335815034577    3.17343468484843    0.52435308742770
