113
 SCF done       -249.515298364658          0.000825830026
C          13.07863348554494    0.30330673295175   -6.24525617979602
C          14.36833593780969    0.20791570521202   -6.68979129027409
F          14.60386046246744   -0.00447598572450   -7.99430449883837
C          15.47038011575289    0.32447292680684   -5.83006598722725
C          15.25181462725538    0.54068924199345   -4.49812248286046
C          13.94224306564989    0.64653841522446   -3.98500475992644
C          12.83410798320801    0.52788353119349   -4.87626026811639
C          11.51275003238715    0.63985666365687   -4.38817624372592
C          11.30658347004860    0.86577921453746   -3.05238995175507
C          12.41807785783592    0.96616158569599   -2.16329716890964
C          13.70516316423412    0.86248814215698   -2.61016653461718
C          11.93718383396821    1.15750993465686   -0.78746061446950
O          12.57105311440677    1.32031747212821    0.22279245658761
C          10.44245256138232    1.01929116038047   -0.88456141688038
C          10.07894062235239    1.05167680615549   -2.29468785941122
C           8.85100949923294    1.36304779667096   -2.80674737470382
C           7.74603657055889    1.74055101041668   -2.01858040903918
N           6.82913475958370    2.08042892080358   -1.41688452050632
C           8.56182443910397    1.40630211383121   -4.18886105124899
N           8.26877349482258    1.43523704115960   -5.29716350538603
C           9.73829269029403    0.72515012367077    0.21912576122712
C           8.36472308029284    0.26686680925034    0.32685149040569
C           7.47332931185157    0.92439975001052    1.17762250359899
C           7.70767503110346    2.16176013773499    1.95986779769078
O           8.72249459635961    2.79177644662555    2.07120974823710
N           6.47382989790206    2.46007697095257    2.55761803467497
C           5.48217486230394    1.51021793390298    2.23626213671735
O           4.35746858756450    1.53278540762889    2.64470788103682
C           6.14300491150369    0.54124257370933    1.32729840459012
C           5.61914838884462   -0.55001318144133    0.65857301589332
C           6.49854523661751   -1.22864837692530   -0.17605709813389
C           7.82827963035759   -0.84113802428812   -0.35309652944536
C           8.58070233510445   -1.70374826688875   -1.28958189112284
O           9.72482352205648   -1.60990850153791   -1.62702767364726
S           7.49748234708172   -2.98583001324132   -1.91702557238760
C           6.08696061173250   -2.41335039824605   -0.96111955607990
O           5.01691486836170   -2.93421764604128   -0.98352082608768
C           6.16650694048279    3.54890865270224    3.34680993532317
C           7.02156077240425    4.53233229762959    3.68527031312200
C           6.64962928146614    5.64680615937734    4.49665048082060
C           7.60357491782253    6.65543303122491    4.78128139251513
C           7.25414547137259    7.87308749380974    5.47243000849942
N           8.24451651363841    8.62429079576046    5.96938267869936
C           9.48910517219771    8.36627553555775    5.66618610442089
C           9.79576478088798    7.32094478816913    4.72842373297531
N           8.86691047329029    6.47471271451258    4.37748659374962
C          11.11873285061820    7.16141355399433    4.24496174532077
N          12.19755621612937    7.06843516259368    3.87365834232713
C          10.53088757605698    9.08650195110452    6.30160022075628
N          11.39793883896812    9.65046306045650    6.79207931320443
C           5.90021435989169    8.21827426479691    5.71549946417310
C           5.01994261522215    7.11219177964858    5.69125948712301
C           5.38222169007584    5.85072982028159    5.07912751835651
N           4.39247693101441    4.95856423769689    5.18319073475085
S           3.18268501512869    5.59965691775870    6.00831530543612
N           3.81670122234565    7.04474065342636    6.25850566172478
C           5.50534183435343    9.51807183737794    6.16413743497296
C           4.19438508152800    9.85114798065828    6.56465304949483
C           2.88156357439980    9.42985263549926    6.03637348443333
O           2.59553544373599    8.87244483149756    5.01097124589545
N           1.92553053945242   10.00020403030938    6.90321697484639
C           2.50819428766482   10.88861304377453    7.81229984697065
O           1.93039793323434   11.53914017336994    8.63919477606842
C           3.95983538442705   10.86081023698379    7.50239947677392
C           4.97105389120827   11.66559362673123    7.99737074320296
C           6.19304381728658   11.55344679453743    7.33949255097364
C           6.43325081987913   10.56885643389139    6.38454958358919
C           7.60538736954264   10.86473156712209    5.54178678689121
O           7.78940206731569   10.56483063578090    4.39646955430394
S           8.62641387226907   12.08930697514872    6.39125898805308
C           7.33390912981404   12.46476041070513    7.57671878179030
O           7.41668872688184   13.31939242831941    8.40364383923432
C           0.58782075967214    9.68958398315354    6.77680089830287
C          -0.35606999749232    9.98385068165980    7.68623007334062
C          -1.71202280941966    9.57665468211020    7.54119614365438
C          -2.62065983056935    9.50848425053889    8.54657015505972
C          -4.08251602006524    9.44955918038579    8.26396597993276
O          -4.60496560244976    9.18917920195192    7.20565517480539
C          -4.73108489607905    9.83296295083812    9.53282804554355
C          -6.05482815441604   10.04950539161610    9.78741432688501
C          -6.45295614389649   10.44111277865211   11.08497896311406
C          -5.46422734207596   10.60897053841479   12.09851572189353
C          -5.86760920132857   11.00827808357072   13.38751517546570
C          -7.19439910549752   11.22159570160834   13.63944462833977
C          -8.18162487119799   11.05932772334695   12.65748222901939
C          -7.80746212913933   10.67420365235631   11.40032506909595
F          -7.58178939216079   11.60123867648326   14.86959773654468
C          -4.10050404702187   10.37090199596407   11.80938664124347
C          -3.74002436967560    9.98153520861953   10.54758245000310
C          -2.44200519927893    9.63097325612437    9.97998399981065
C          -1.33045331112948    9.26092221737520   10.68990664811339
C          -0.20640821119909    8.62642466910153   10.11963413442969
N           0.69639730247748    8.04494878057653    9.71313646193194
C          -1.23609416587203    9.35252116224976   12.09498402425147
N          -1.10937465327380    9.42028078504447   13.23334241180007
H          12.25504025092567    0.21156661488010   -6.93591087054106
H          16.46491422612666    0.24045853455281   -6.23854977035303
H          16.08439308759196    0.63350673736636   -3.81743615253981
H          10.69307522819387    0.53202620268314   -5.08077605409809
H          14.53217358835246    0.94524173348446   -1.92108484705891
H          10.26685139860365    0.84203557117800    1.16126404268658
H           4.59044030997493   -0.85690685902423    0.75988977641631
H           5.13694666694545    3.54815983253577    3.68433098582262
H           8.04492577667892    4.52980646741521    3.34079953214608
H           4.80738263533869   12.39733939792436    8.77144633566875
H           0.37689362617612    9.10056368113740    5.89268112218075
H          -0.08656584490631   10.54310719041471    8.56971829950284
H          -2.07595478107607    9.35419490830651    6.54458502445991
H          -6.79056550763601    9.92351486587878    9.00728384518963
H          -5.13530501657307   11.13978090011408   14.16868222896577
H          -9.21282639304876   11.24195942506985   12.91494626464118
H          -8.54956174835697   10.54314141831515   10.62729103201015
H          -3.37176053170418   10.51273113840177   12.59182799497629
