96
 SCF done       -191.057905810038          0.000665699413
C          21.59069187005568    3.69861937159606    2.15372926296523
C          22.89077899802076    3.43216391368161    2.48369174805782
F          23.59233717754067    4.33571795529803    3.19063964575825
C          23.53144018524691    2.24220433529279    2.11296450836412
C          22.83291825378882    1.31089286499510    1.39563478789771
C          21.48936724790591    1.53275249625055    1.03065737519557
C          20.85620855653776    2.75095203817792    1.41532838703650
C          19.50975550378082    2.99828165228171    1.05846021065861
C          18.82069597900033    2.05231538336221    0.34967996599360
C          19.45381738694872    0.83019017044325   -0.01992154550400
C          20.75511318328203    0.57077757313655    0.30053671099686
C          18.48215723907755   -0.02126052199432   -0.72714333076988
O          18.66261849129239   -1.09856617115433   -1.24339848209839
C          17.17691998578952    0.71016095627670   -0.63339144769834
C          17.44974836842399    2.03317661689093   -0.14593646413443
C          16.61148287194257    3.11921466132977   -0.23288780531338
C          15.41121609524157    3.09353600031590   -0.96301990905867
N          14.43623379160555    3.11941407537419   -1.56976273928453
C          16.90214547279781    4.39873888984156    0.28313294233399
N          17.05749095033620    5.45080628165196    0.71464772049420
C          16.03672529257926    0.01147862925428   -0.90436921726213
C          14.67035858442735    0.22656511847539   -0.61201439797253
C          13.63072717301856   -0.51921372946714   -1.32710343919229
N          12.41692363992846   -0.29525378904891   -0.91514241157919
C          12.53463754194676    0.58290501023872    0.11027357907743
C          13.95167375786668    0.95256146830817    0.33164534932923
C          14.03870290867262    1.82046353995223    1.47061714752553
S          15.36138774855053    2.46597543666596    2.22164910476843
C          12.68160347820029    1.99255392266200    1.91284062788126
C          11.76410038466392    1.22507257960879    1.04975919512454
N          10.49730065629143    1.26156539592796    1.56356052772262
C          10.57479626612569    1.97067609795560    2.64846042218450
C          11.92166862106238    2.48499629169139    2.93933036237628
C          12.31546244432106    3.26415107303021    4.09856036145250
C          11.86520372218741    2.87908489885295    5.36300547781715
F          11.01560194122563    1.83678134230407    5.46278840835273
C          12.28564955072246    3.48823158854869    6.52851071168606
C          13.20187061882680    4.52387098315412    6.44608253595482
C          13.66197967340662    4.94156739527535    5.21274949886994
C          13.21491503260654    4.35161083986188    4.02977145613016
C          13.65181249306261    4.92275050522847    2.76938404623435
C          12.88048159239124    4.96528329690817    1.66605561691143
C          13.26688125766091    5.47189847863410    0.39514293176412
C          14.30761682719497    6.45282361279218    0.04631303815430
N          14.36567864678879    6.74288471360969   -1.21977984777691
C          13.40247613389820    5.98591304854353   -1.82240096250729
C          12.70315199761406    5.15879675012461   -0.81697424143812
C          11.70324359806713    4.34766294786488   -1.44338025130977
S          10.75845558464241    3.17449477938926   -0.77895786491730
C          11.73738946738265    4.76111602737792   -2.82509400529180
C          12.80855290232599    5.75722976380672   -3.03219777446419
N          12.81348008411265    6.18131097786834   -4.32875880123783
C          11.80405966212896    5.59622600012507   -4.89549509417974
C          11.05744577234012    4.68394468966765   -4.01221651954912
C           9.90641842044245    3.92256483937228   -4.36759709452474
C           8.90176525512882    4.32514695136507   -5.18204898582785
C           7.94925844595755    3.33558606058119   -5.77238902366042
O           7.81446866372702    2.18207784897703   -5.44550398948824
C           7.27300630541967    4.06208751719435   -6.86315509521729
C           6.37300722121034    3.58979600422138   -7.77540788616078
C           5.84845300767934    4.47034121687477   -8.74705681284109
C           6.27905977501648    5.82981550840423   -8.76284499863066
C           5.75383161213349    6.70228561373741   -9.73597953257956
C           4.84116071706004    6.22993385627152  -10.63795253777335
C           4.40374469999694    4.89778699481797  -10.63741761509107
C           4.90576013331770    4.03644370214636   -9.70212360812539
F           4.33596784562764    7.06129025441318  -11.56502831842160
C           7.21099619013329    6.29293936157859   -7.80557464776504
C           7.69334346170033    5.42487075917988   -6.86252903014069
C           8.59378786171406    5.63209006194100   -5.73332543476153
C           8.89763969714803    6.83985709802307   -5.16313510870220
C           9.48913148034767    6.98393853676263   -3.89034867788721
N           9.88724548458923    7.15457813811989   -2.82745304895996
C           8.54093748987431    8.08289597153638   -5.72818356334204
N           8.28882555870155    9.11365734880574   -6.16409846473542
H          21.13020481839414    4.62659348977100    2.45476407463742
H          24.55881528311556    2.08686104426483    2.40172082227303
H          23.30496744407939    0.38626340638593    1.09939503792492
H          19.05084591679957    3.92334910694045    1.36912884153200
H          21.21859194654177   -0.35930506473315    0.00735489780837
H          16.23091369442565   -0.94131820435673   -1.39524846749049
H          13.81922603847304   -1.19136873832733   -2.14626123046280
H           9.70253777654448    2.14774413620801    3.25207495833384
H          11.90781757093803    3.13621104844557    7.47496823155987
H          13.55380845639825    5.00190415578991    7.34674724911506
H          14.36512524848239    5.75811063934692    5.15012206995647
H          14.63361384341392    5.37667822176323    2.76046629525171
H          11.88428185522970    4.54093046851919    1.68887526167652
H          14.97152277529042    6.93210967655407    0.74396912548079
H          11.59190901204416    5.75144509139672   -5.93982429620112
H           9.84510568185762    2.90950956351741   -3.98183983976756
H           6.06103217894488    2.55643279103906   -7.75168432358806
H           6.06477169047164    7.73494278595518   -9.76344090852125
H           3.68135800114399    4.58274031301868  -11.37362733599806
H           4.58351117317616    3.00633965572221   -9.68156097191536
H           7.52497762038710    7.32400454092437   -7.84522313432804
