100
 SCF done       -212.684283581755          0.000831269053
C           2.98933021036502   -5.17264297951450   -4.26807237387398
C           2.07271969534504   -6.14902180551679   -4.54431279808152
F           2.49573797741224   -7.36169108072777   -4.93615708290847
C           0.69089538372689   -5.93589741684642   -4.43363110963247
C           0.23960585977920   -4.70865783339074   -4.03526947532161
C           1.14057520705182   -3.66491812914403   -3.73778539133777
C           2.54271036689273   -3.90209014540535   -3.85483034136545
C           3.46581213615528   -2.87518506382266   -3.55460230900704
C           3.00149588045696   -1.65202366682022   -3.14745593512445
C           1.59819339012229   -1.41539311528259   -3.04831071275438
C           0.68519716024937   -2.39156488156464   -3.33231028338520
C           1.35807845128663   -0.02244436990864   -2.64238951171364
O           0.31309856320758    0.52902169996906   -2.40923656042357
C           2.71845344568338    0.61664359567240   -2.65170330573085
C           3.71115463574780   -0.44567672927009   -2.74999574705348
C           5.02290279656996   -0.36805489474237   -2.37687593437464
C           5.60959271803803    0.77364017511914   -1.79547921780420
N           6.11825119559202    1.66771412943902   -1.28574532132327
C           5.93103781208271   -1.44674743221602   -2.46668836246434
N           6.71158511950119   -2.28424354350885   -2.53164663453014
C           2.82009511644633    1.95139001727041   -2.75132769695877
C           3.99753445320842    2.74574866521638   -3.05471097209979
C           4.35628321505194    3.80922134011695   -2.22415217485746
C           3.72402109783769    4.24121431210464   -0.95640285200905
O           2.72576983520965    3.83305255988563   -0.42726706862867
N           4.54428046405621    5.25891203771508   -0.45302729184980
C           5.62610472221784    5.53943500846351   -1.29536555372882
O           6.46152278273387    6.38100543482914   -1.12307042408993
C           5.49534507364172    4.58256521148110   -2.43059930393276
C           6.32783120031829    4.37812061270246   -3.51510068251874
C           5.96309831866366    3.34899379018839   -4.37494566709419
C           4.84345905329165    2.54274982556917   -4.15982319908029
C           4.64752907598154    1.50548299549734   -5.19452560149856
O           3.77735210920321    0.68674367040556   -5.26910585652506
S           5.96635534810560    1.61428379451592   -6.40200973443572
C           6.75072421235620    3.00909205891647   -5.57937613063356
O           7.73905756175958    3.53900132903357   -5.97784936259900
C           4.27096625461624    5.83612970637866    0.78169290755710
C           5.10156133478831    6.61836687296171    1.48381808351096
C           4.75198337667106    7.09101121100556    2.78966939132985
C           5.65003071401631    7.65034296719323    3.61921042113405
C           5.36432944797393    8.01633709550601    4.98680251642642
C           4.19796554777475    8.68045593637987    5.39703780776716
C           3.12681707669689    9.31167875949267    4.58317035089375
O           2.97895611392002    9.32955238337641    3.39104746458851
N           2.26165429620454    9.91988983011652    5.50725940201660
C           2.66423231874171    9.70636059204124    6.83572813555358
O           2.06744495894113   10.08524979452635    7.80365700045630
C           3.93582058673020    8.95423428039621    6.74145959594737
C           4.80217710415463    8.60537902652969    7.76052665357176
C           5.98312116593358    7.99000014697971    7.36506057095391
C           6.26540656544322    7.70792858554573    6.03036542286552
C           7.56141618981310    7.03159221319764    5.82666814065193
O           8.04655894544089    6.64208824098382    4.80787241355153
S           8.38160067286978    6.83412514619691    7.41962556869950
C           7.03233949607602    7.58527984131334    8.32698213400791
O           7.01681932097617    7.71547565670839    9.51219071128154
C           1.22856826380170   10.79437289184151    5.22699390164811
C           0.99457974750345   11.35224851337852    4.02873649534842
C           0.03420022244679   12.39055575425935    3.85693726277805
C           0.07164601054616   13.34851110105419    2.89819217972460
C          -1.12168889273062   14.20231545142467    2.63463164520823
O          -2.10744650921610   14.29554053183643    3.32787898125823
C          -0.85390517967174   14.85014844271741    1.33792262037187
C          -1.66958655021494   15.66163741573888    0.60271012749130
C          -1.21011589390690   16.16317288134584   -0.63496391625717
C           0.08959873372656   15.79999150438335   -1.09472490442810
C           0.53980058776151   16.29680115327892   -2.33354249586307
C          -0.27435173474737   17.11794196959055   -3.06297845089236
C          -1.55380832317312   17.48922859447086   -2.62640537785697
C          -2.00789755029113   17.01365797588083   -1.42793643668235
F           0.15412168965980   17.59481888149811   -4.24474010724214
C           0.91455003986948   14.96067538763683   -0.31068465851471
C           0.45532702990755   14.50055650508076    0.89463580130772
C           1.09391768723491   13.68298827216119    1.92390004391901
C           2.44295267134143   13.47530789367948    2.03999791337651
C           3.09999162581235   12.94696141393178    3.17200973305913
N           3.71372617591314   12.58612446027426    4.07326758763776
C           3.38004772963608   13.87867458827136    1.06304627827802
N           4.18312778199160   14.17240628904420    0.29806856295038
H           4.04521222013374   -5.37287204331451   -4.36155216978485
H           0.01574982586708   -6.74420914226304   -4.66576081064074
H          -0.81949843519725   -4.52133318940482   -3.94335058086132
H           4.51949642846707   -3.07638202317595   -3.66569744285641
H          -0.37274490267779   -2.19319887638526   -3.24793456970367
H           1.90609435875345    2.51241161124138   -2.57946515025946
H           7.21521721519088    4.96633345153721   -3.68621822963049
H           3.30084148369127    5.54020529431484    1.16157763432035
H           6.07636953567563    6.87748775884909    1.10027863694448
H           3.73872574873907    6.91003381350085    3.12074975459839
H           6.68019437140622    7.73904312935270    3.30377960255547
H           4.59226825588337    8.81521687151425    8.79687563612838
H           0.68626069162008   11.09238028355362    6.11614636538984
H           1.58099335669323   11.05465289810257    3.17249195422984
H          -0.81282165509870   12.42402905130731    4.53325183723943
H          -2.65352788062386   15.92054267416760    0.96405905406436
H           1.52078476123462   16.03562460648288   -2.69860703940876
H          -2.15055202111304   18.14089562854747   -3.24467629572433
H          -2.98961877452345   17.28551540867356   -1.07050970083602
H           1.88946691659326   14.69709745455136   -0.68860798185457
