142
 SCF done       -253.588361600070          0.000994924716
C          12.18515893822757    7.19343078832149  -17.69485778017871
C          12.42692686150155    7.67224067962736  -18.95208843254107
F          12.66799958286353    8.98437737460249  -19.12609351807415
C          12.43374630606583    6.84493705244546  -20.08379515338626
C          12.18950193749878    5.50921742902073  -19.92778447706839
C          11.93230349004532    4.96195792749075  -18.65378364010007
C          11.93215496357728    5.81935836183779  -17.51504025632470
C          11.68337626397846    5.29403307787391  -16.22591829687103
C          11.44030765602863    3.95443989074281  -16.07971996673776
C          11.42048423501922    3.10840451546011  -17.22532677367125
C          11.66561612283875    3.58641695280520  -18.48073499436297
C          11.07536729205363    1.74060741671967  -16.80807712407214
O          11.01148085499336    0.74301870031711  -17.49146332416778
C          10.76328075249388    1.83127398012199  -15.35143958744954
C          11.17798051373882    3.14468323467997  -14.88910467879393
C          11.47788087216466    3.52828330649018  -13.61188605939747
C          11.40177914155649    2.72106777055068  -12.45480942138022
N          11.40822251129640    2.15497439511523  -11.45743906271335
C          11.96963941977286    4.80946725999090  -13.27874570351944
N          12.36326190547829    5.83434424979173  -12.94358813572587
C          10.13586029465521    0.77315275423079  -14.78351792640623
C           9.46034584628962    0.65765368398562  -13.51998795090695
C           8.79778583692867    1.76765871132799  -12.96470041272736
C           8.09482796718231    1.69220342844745  -11.78512624323213
C           8.05084515338575    0.49851804249071  -11.06973316878493
C           8.67428092487486   -0.60583639933087  -11.59717392546152
C           9.35116606285207   -0.55366471976091  -12.82448469680551
N           9.84202335176416   -1.81133297845163  -13.12863840845543
C          10.71244297841311   -2.18931247198825  -14.21047792532204
C           9.51478828796787   -2.72566751596439  -12.15739904132406
O           9.81023783781267   -3.89747491234140  -12.19431416048960
C           8.79342038521553   -1.98588603943762  -11.04032278476247
C           9.71472790230641   -2.04524805565822   -9.79384717541095
C          11.17103913081367   -1.96794328619398  -10.27239842118949
O          11.68944634498324   -1.07549133768996  -10.90223483069573
N          11.78817800195717   -3.13007237299116   -9.91246670765544
C          13.13905038862565   -3.44995900023221  -10.28277824752377
C          10.91852005260166   -3.99047772903605   -9.25861579273266
C          11.15990028221773   -5.26210192251970   -8.78950097347356
C          10.11578062404489   -5.94807665184382   -8.15334973813788
C           8.87746242049011   -5.31865485274011   -7.99352594090951
C           8.64635250451653   -4.04154155206755   -8.47753575936325
C           9.66884005269227   -3.37841325318064   -9.11986612029119
C          10.30887743945246   -7.30189876323240   -7.68187424599412
N          11.28670946661253   -8.11773859519166   -8.21065562342864
C          11.21424399464164   -9.33131769927559   -7.60065798670702
C          11.76960123705303  -10.61116577319836   -7.56129573947266
C          11.07636804541289  -11.30162632753374   -6.56789864597844
N          10.12782205076950  -10.47070162504097   -6.00817718548993
C          10.18775749163374   -9.26545810817683   -6.63483768909581
C           9.61550065293665   -7.99104347079431   -6.69299936580575
C          11.27457693770165  -12.65641342967794   -6.16677705644010
C          10.68364900276735  -13.25794009754365   -5.11812537271608
C          10.85980729806956  -14.66218274585483   -4.79148948999295
C          11.00142739565218  -15.59223077767839   -5.83163433009333
C          11.16784112789921  -16.94184122844205   -5.60550085317876
C          11.19836476355055  -17.43953062993274   -4.30867759141779
C          11.03747097199172  -16.55243918231762   -3.26777197373066
C          10.87419434829083  -15.17950776255353   -3.49207685450938
N          10.82781126238917  -14.52633834877904   -2.26110743586854
C          10.64973180516085  -13.11871184022005   -2.02251913813855
C          10.96853667996204  -15.39590347280449   -1.21940754247731
O          10.98983372377171  -15.08126367175931   -0.05001503903287
C          11.04416827472887  -16.80737187738095   -1.79103470531950
C           9.81802581231150  -17.61627288495416   -1.29303711724378
C           9.72408591110567  -18.89149037653589   -2.12587151366002
O          10.46814502227616  -19.84136820912678   -2.11351923803409
N           8.64204419386766  -18.75622882793153   -2.95887068565428
C           8.29337788639062  -19.71806190950695   -3.96796571120817
C           7.91711973135794  -17.61447455785801   -2.66538978217115
C           6.74316183884365  -17.16656794675134   -3.22814339708625
C           6.13355381909369  -16.03292961532166   -2.67139435300885
C           6.70612232114570  -15.39979029995158   -1.56730838551862
C           7.92529036391177  -15.81968459176376   -1.05444454835984
C           8.53255491083818  -16.92208481473230   -1.61258877114723
C           4.88988682214602  -15.54568790162617   -3.23288904019834
C           4.58868969316317  -15.48345687555890   -4.54876354980060
C           3.17760251818962  -15.39754196982619   -5.02441583590970
O           2.20697818530366  -15.09845925993478   -4.37039687627752
C           3.22871343909679  -15.82137523616038   -6.43859321732908
C           2.19756923473200  -16.04115418565422   -7.30578685640539
C           2.48186164713682  -16.46495648803459   -8.62354600058052
C           3.83842003948550  -16.65388296254940   -9.02081099000744
C           4.11247847459313  -17.07953095547091  -10.33527702278538
C           3.07626395665485  -17.29993359676259  -11.19935154691586
C           1.73671648609697  -17.11924964003951  -10.82838859387133
C           1.45259117213218  -16.70659249768998   -9.55623317517325
F           3.33665819887640  -17.70628956749992  -12.45454593940215
C           4.88797986543352  -16.41202437491045   -8.10529406317804
C           4.58746358593754  -16.00038964936357   -6.83406582629300
C           5.44366786024834  -15.64533959144913   -5.71194399653340
C           6.76492716895558  -15.28591451870922   -5.78025325415403
C           7.42387277786626  -14.62602110578642   -4.72622201056482
N           7.95836222961275  -13.99637051084073   -3.92855466400004
C           7.56573198395216  -15.42289476388654   -6.93023243174866
N           8.26060331181488  -15.54160380125088   -7.83631205685628
H          12.19189945118768    7.85902160757129  -16.84587652778769
H          12.63061239137001    7.27995726061659  -21.05077526904672
H          12.18897428123702    4.85155724915545  -20.78399927616949
H          11.68065284794737    5.97075539603878  -15.38656435880977
H          11.65171904664537    2.92215894255213  -19.33184361265550
H          10.07406198250707   -0.08444988852621  -15.44309063972860
H           8.80808430906394    2.69581244501089  -13.51708481049093
H           7.58717943040200    2.56539805816726  -11.40644629559205
H           7.53001982307654    0.44136395103065  -10.12613064216116
H          10.17672888421795   -2.24595455519691  -15.15978752611102
H          11.09651423517805   -3.18250957088430  -13.97232765748776
H          11.54240352575200   -1.48619485830370  -14.28780606101685
H           7.83303657462477   -2.44620792753929  -10.79910970858256
H           9.47734862833808   -1.20955382796652   -9.13150899839959
H          13.55705689972914   -2.57476429518836  -10.77906753861077
H          13.15469845096569   -4.29968130772038  -10.96913634768143
H          13.73292982652436   -3.68558164498165   -9.39769631269918
H          12.13509477174899   -5.71083861708116   -8.89560895045060
H           8.07861548884432   -5.85486681786317   -7.50725202074835
H           7.67649305476138   -3.58125811111873   -8.35808236860676
H          11.85807397076844   -7.88251018794829   -9.00279838945427
H          12.56608826960426  -11.01008408731586   -8.15712832067192
H           9.47365497929385  -10.74717589567738   -5.29782629415179
H           8.82410768674423   -7.59885019179590   -6.08677176180607
H          11.98787983108018  -13.20457699234291   -6.76640697267014
H          10.01159713266564  -12.69946889566750   -4.48743153681627
H          10.95314460157544  -15.23070431929469   -6.84700806435747
H          11.27726160004148  -17.61447473002639   -6.44244988160737
H          11.35716740664436  -18.49004197858878   -4.12381069534099
H          11.37269444227918  -12.53617955710540   -2.59446431485801
H          10.81198086139163  -12.95630627765567   -0.95622522809846
H           9.63302043903134  -12.81725586616307   -2.27878676937618
H          11.95004307841965  -17.32317817733508   -1.46231861418466
H           9.94951301507840  -17.82264188871160   -0.22920262845163
H           9.01787124549867  -20.52950707397080   -3.90927454582911
H           8.33797245730153  -19.26180527833170   -4.95960205700147
H           7.29096685581279  -20.11501479276103   -3.79519704075205
H           6.27158767642644  -17.69279252601252   -4.04456316235763
H           6.21158496528632  -14.54047517183261   -1.14197099841015
H           8.38017481541740  -15.30055330354116   -0.22562590073380
H           4.10337554456798  -15.27136398672649   -2.53861296264890
H           1.17546728827725  -15.89264103413193   -6.99113395801546
H           5.13199308075949  -17.22548775748637  -10.65637920960098
H           0.96107810024564  -17.30914082560765  -11.55310875273041
H           0.42853878426464  -16.56011355424498   -9.24745340045514
H           5.90665133484617  -16.56571616060213   -8.42596654484650
