134
 SCF done       -221.030684235212          0.000295377937
C           1.12447540657053    8.33461830806212    9.33387211080156
C          -0.18306132491503    8.67624707239630    9.12845156007262
F          -0.90504583805286    9.17708464051225   10.14796736517554
C          -0.81295971370095    8.52651938266933    7.88552394309445
C          -0.09553956312760    8.02019603900312    6.83777672735817
C           1.25677842378958    7.65253897490021    6.99287857297615
C           1.87862229662193    7.81079363458950    8.26585475558114
C           3.23212076190238    7.44246257610458    8.44777983762241
C           3.93733530106050    6.93995757634326    7.38858039057389
C           3.31541451777810    6.79752295027472    6.11407781795144
C           2.00862160820345    7.13632335636058    5.91360235170098
C           4.30002241902103    6.27589956850139    5.14458708802387
O           4.11942172491882    5.98019068882463    3.98497311487729
C           5.59099727539591    6.25330228696147    5.88129118543496
C           5.31030716749113    6.45632603069190    7.28600204941964
C           6.07898895484846    6.00803291379585    8.32818993999357
C           7.27111329668738    5.27985056941533    8.13791771596812
N           8.21453090453474    4.63856771844167    8.00813684353855
C           5.71568056613890    6.13865139435656    9.68256682076633
N           5.46573210014533    6.23668629510056   10.79870936629388
C           6.76365297971328    6.15655118863929    5.19931158769966
C           8.06248495088503    6.54409258427663    5.60717558887975
S           8.33736874061549    7.78215132292133    6.81456181672939
C          10.02663052698301    7.70278049991118    6.55196420670230
C          10.37992553897874    6.77793042206721    5.61302934195666
C           9.26090382180353    6.12168329569763    5.05594738260963
C           9.36377618492259    5.08898117516265    3.98422235890122
C          10.80406174971608    4.62641030640810    3.71243254792850
C          11.76081425058874    5.82749171843869    3.79864514949150
C          11.77302553087321    6.44944529774735    5.19120597636458
C          11.22634062820941    3.48623669617352    4.61977036849860
C          10.90321648690864    3.45451405157840    5.91139992602388
C          11.99359692079871    2.39567070716097    3.99461910917099
C          12.84188126071376    2.61658307546844    2.94159635926817
C          13.51985168316221    1.54002535722156    2.32641366297222
C          14.38080359247930    1.51199568123723    1.24110655654473
C          14.85871577232986    2.69191163642580    0.45979565573028
C          16.39120068601792    2.80858609216427    0.52745167820546
N          16.83912880804150    4.08551873480060   -0.01254141905863
C          14.34328499109258    2.66414007799200   -0.99059300455415
N          14.31879005407742    4.01528079593213   -1.52084379595493
C          14.70202018222604    0.12428044634133    1.00195155566661
C          15.41160622375882   -0.48271677074293    0.03269984829877
C          15.52431363644097   -1.96714614995242   -0.04739689376653
C          14.91976311481622   -2.70275321547412    1.10020165323694
C          14.19710148586469   -2.08551767411397    2.05483210416723
C          14.02944061511745   -0.68196596585581    2.03297038160548
C          13.30685521035426    0.19100534003137    2.82481393993701
C          12.43851766220286   -0.00789394592128    3.92062806609524
C          11.80751140314532    1.05881151984045    4.47633694572032
C          16.94549014653881   -2.34760074417408   -0.37500625443289
C          17.74452494096344   -3.10643899978160    0.37316229630193
C          19.08225677992792   -3.46713258160851   -0.00800202977258
S          19.81933658678253   -2.81560775917962   -1.44941827550702
C          21.24647243976242   -3.73006339669681   -1.17649011470925
C          21.17162931156227   -4.49372643486867   -0.05382441612911
C          19.93249647175048   -4.34232750928120    0.62321683056613
C          19.63184041213565   -5.06773477095957    1.89691129765815
C          20.55960262234193   -6.27724707354293    2.05158471724341
C          22.01455010224853   -5.82714865938905    1.86869117468617
C          22.24193176918297   -5.43238360171335    0.41207062711773
C          20.33417879078752   -6.95922447045957    3.37780344166961
C          20.02670959574034   -8.25720723555425    3.44213474794809
C          20.58545241993162   -6.17802573343867    4.56836716181240
C          20.05429689649680   -6.29694640304689    5.80562478416179
C          20.77186612314141   -5.67437708621114    6.95850735313392
O          21.63312772193240   -4.82787705291044    6.89738474945276
C          20.25104055021540   -6.36266532254739    8.15269091146301
C          20.67833812429119   -6.27936470648295    9.44655893287221
C          20.05615622198171   -7.07918848535280   10.43089991219052
C          18.99900664659378   -7.95743253846720   10.05113304068018
C          18.39558257297907   -8.76429730478259   11.03551106319758
C          18.83205468764742   -8.68544196971693   12.32868645346802
C          19.86576283691370   -7.82495750987435   12.72245799982843
C          20.46366855281724   -7.03556027458039   11.77974440139324
F          18.25833938351827   -9.45757164643140   13.26924534464594
C          18.56726682037139   -8.01318257438300    8.70587667356503
C          19.18014588601504   -7.22251846703807    7.77024261362392
C          18.94188225999207   -7.06167343226965    6.34065330248081
C          17.77614875434254   -7.37129705870706    5.69085937809827
C          17.49316739312056   -6.99131397440895    4.36491116047694
N          17.18154920706678   -6.66489072898057    3.30904910654976
C          16.69229102337925   -8.03105232994759    6.30467042373660
N          15.79092564654295   -8.57839563662406    6.75844032136806
H           1.57582102494774    8.46023132916631   10.30562238690963
H          -1.84744472542013    8.81358330827642    7.78298618205517
H          -0.55869847624886    7.89565755196180    5.87048611062855
H           3.68309032363401    7.57805235918823    9.41832202385890
H           1.55257477289641    7.01335302761553    4.94264036091099
H           6.67491615816886    5.82176660515538    4.16957760330044
H          10.67314797574208    8.35040488488734    7.11127597635755
H           8.95225994298455    5.51960128796473    3.06407910230496
H           8.74701337407132    4.22474632555027    4.23992458638632
H          10.83049232212219    4.25186522204673    2.68368529493109
H          11.43818417459753    6.57650537336845    3.07095298419730
H          12.77466829462994    5.52105727499031    3.53947404233975
H          12.39377584890922    7.34761351942714    5.20401150480558
H          12.20239398870916    5.73787222573168    5.90283458282412
H          10.29628745811467    4.20722223938936    6.38215984164512
H          11.23947297343739    2.66315572072563    6.55902715753949
H          13.00620284282012    3.61142268054849    2.55778891705376
H          14.43938994551914    3.59662529018582    0.91158629924264
H          16.85384773472749    2.02032661191381   -0.07131429271552
H          16.70135108867695    2.65327090090188    1.57527369266000
H          16.48435087277128    4.84520420075447    0.56052240906225
H          17.85250416559983    4.13538625551499    0.00254438379051
H          13.31673338724604    2.28115788672560   -0.99565096771126
H          14.96203981240099    1.97258322747966   -1.58549773074711
H          15.25882212598295    4.39913640547829   -1.46530347555945
H          14.03322131922205    4.00730025569425   -2.49432017496695
H          15.90796268046794    0.07187869266741   -0.75067433616501
H          14.93750506927961   -2.25160161391970   -0.94243473283653
H          15.04221457396067   -3.77485277921922    1.09806300224812
H          13.73730219640980   -2.65469562339303    2.84994388007186
H          12.26855408390528   -1.00770395550629    4.29309409837095
H          11.11238553881577    0.90458499959775    5.28723217593733
H          17.31813834332921   -1.94381572000878   -1.30832223989263
H          17.39978248419935   -3.51121138164335    1.31384516445161
H          22.06033498862442   -3.65218152993086   -1.86997524235886
H          18.59311977766568   -5.40223803469459    1.91725096965758
H          19.77274507602334   -4.38753750899680    2.74483099458595
H          20.32418204935185   -6.99551837595043    1.25950794228203
H          22.69748639614497   -6.63303499329723    2.14557440088741
H          22.22240264483674   -4.96700828789048    2.50753114801108
H          22.22300993111728   -6.32882495399392   -0.21671345411031
H          23.22440731728614   -4.97082507484818    0.29006591746425
H          19.90073583908664   -8.84993324330688    2.55289461642368
H          19.92629094451467   -8.77739676605837    4.38018854078220
H          21.37898972030132   -5.44129789926443    4.49338762311355
H          21.48553602861289   -5.61473238624457    9.71575876495411
H          17.59401504518331   -9.43553542168743   10.76975259746140
H          20.16681700041779   -7.80488815882688   13.75778632849905
H          21.26270059798082   -6.36507513676390   12.05819665805752
H          17.76999226498418   -8.69092962945636    8.44430903783796
