114
 SCF done       -207.461717937631          0.000625025474
C           7.92899738818591   -0.80799698501394   11.71120910248772
C           7.29636141238335   -1.14365172460617   12.87549416656660
F           6.90439989999681   -0.17193106264971   13.72038019012870
C           7.03430775301843   -2.47334944423538   13.23224850013186
C           7.42401212462433   -3.47412369938362   12.38621488072969
C           8.07986839413573   -3.18520413260505   11.17204597698641
C           8.33992720762278   -1.82638979058501   10.82915123946050
C           9.00787531251346   -1.51160105740731    9.62301122277105
C           9.40018187758915   -2.52357420331068    8.78893615775350
C           9.11938887298817   -3.87882101082177    9.12714054607767
C           8.48197382270799   -4.21109230220105   10.28737212228278
C           9.60559023956773   -4.76214184717166    8.04785330169556
O           9.58108446361364   -5.97084466776659    8.01156226240786
C          10.08199426292734   -3.84462854103183    6.97661470381359
C          10.13019950895163   -2.50396179857250    7.52412755435217
C          10.92079063063940   -1.47116245904033    7.09036948509575
C          11.82940372608243   -1.55375508043647    6.01529207801811
N          12.63153126905084   -1.55428496526127    5.19363914163200
C          10.98622841763346   -0.21546349820789    7.72704688184788
N          11.06185441863584    0.83109751532669    8.19348268487385
C          10.31914266951257   -4.31872389031998    5.72623924466506
C          10.42734979601803   -3.56746127657504    4.51367116078982
C          11.27041413594046   -4.02398080077268    3.46968753736468
N          11.99988360158543   -5.13633309141923    3.46761611914655
S          12.84192427129240   -5.19721456158220    2.09977722753354
N          12.32836428575780   -3.82313241807034    1.44704019060087
C          11.46747576276995   -3.23851125264992    2.28107513078092
C          10.76710515560373   -2.01929592141733    2.08815258128421
C           9.87161024570194   -1.66726785932866    3.08852266090520
C           9.72407138040446   -2.39595118298485    4.26394950854421
C          11.02510953120072   -1.15914627342546    0.94583752634964
C          12.28711733373027   -1.12105148767974    0.40092494489610
C          12.59615332555490   -0.19675854772109   -0.61787126977336
C          13.78363845161915    0.07974178034663   -1.28589594517130
C          15.12164375123765   -0.57653731774313   -1.19394609825741
C          15.90242796688996   -0.13018385742086    0.06349269032739
N          15.24663355657128   -0.56219050725932    1.28133921766291
C          15.04170266437876   -2.11038529230282   -1.26103938184934
N          14.36287920543135   -2.51286554019520   -2.48404310309236
C          13.51184697985194    1.20061572688965   -2.15846614230996
C          14.32372067717068    1.91838913820796   -2.95575003049532
C          13.83317206344860    3.11143871809867   -3.70115639748948
C          12.36247045632437    3.36352488231989   -3.57462343280410
C          11.56178245276460    2.63038392049266   -2.77883809021608
C          12.09331032098930    1.56020681153253   -2.02154178817237
C          11.54855825574994    0.70449250461857   -1.08653970278220
C          10.24473367197472    0.59752583759489   -0.54881707480585
C           9.99674419853922   -0.30023389714280    0.43759426066423
C          14.20243739048246    3.01618889179166   -5.15766753984187
C          15.01110865876019    3.89200706842477   -5.75792610597369
C          15.38057228232269    3.92019129215088   -7.15339465972062
C          16.28519667017674    4.92474603689266   -7.58312200418935
N          16.90134467156828    5.81922501087803   -6.81085409425690
S          17.83888907162507    6.74408447484029   -7.72586925436603
N          17.51514024071756    6.06432315332373   -9.14925392196132
C          16.64056998218018    5.07587128150283   -8.96665982526159
C          16.09636831419910    4.20580517589327   -9.94747682037799
C          15.28008940085702    3.18565639462012   -9.47364964207156
C          14.91619217933399    3.05939336023724   -8.13506728342693
C          16.38924032713757    4.31807861550301  -11.34502951810940
C          16.74978640271057    5.41085009427237  -12.06302065844154
C          17.38867756523930    5.22856963045773  -13.39918911858062
O          17.41453348622855    4.21367133086419  -14.05602963660322
C          18.02058008937028    6.52655596443752  -13.70412210787859
C          18.83733143559466    6.86191883124909  -14.74539084588509
C          19.35835257137285    8.17332246003845  -14.81850836841571
C          19.02636142748018    9.11445000688846  -13.80042629448657
C          19.55765910677435   10.41689867925543  -13.87435746370977
C          20.37353460714769   10.75086980691577  -14.91909894784384
C          20.70891916044041    9.84141821398137  -15.93142942505733
C          20.20387458143529    8.57226997102947  -15.87406675118318
F          20.88127277101366   11.99488460478098  -14.99152172999408
C          18.17094930829286    8.74183981600024  -12.73770183231263
C          17.66941102924623    7.46909611344885  -12.69445176354425
C          16.75553232589755    6.82583284861040  -11.75710183668527
C          15.90231905574512    7.47841159294383  -10.90842944327686
C          14.85848701673010    6.84410356584423  -10.20575397943864
N          13.97731341203176    6.38314884372717   -9.63221184198774
C          15.93298405967244    8.86783755040874  -10.67575232984768
N          15.93129742048689    9.98799851857088  -10.42425978336876
H           8.11852451370151    0.22649725863913   11.47077959493766
H           6.53202540567096   -2.67755705179091   14.16449310484591
H           7.23306268588553   -4.50617084837480   12.63924976663307
H           9.18563045192050   -0.47476605446540    9.38497628925938
H           8.28744217686643   -5.24526392145850   10.52902076743269
H          10.40457620189712   -5.39591363590600    5.63034098162979
H           9.30510262254428   -0.75410058211127    2.98593736727392
H           9.02286968979418   -2.04224917987548    5.00692847815980
H          13.05807605996817   -1.75496592360746    0.80285031784239
H          15.70508755679107   -0.25232200266057   -2.06172715389040
H          16.04397828994247    0.96346351894958    0.00749413901995
H          16.88956057263310   -0.59945529091989    0.03022158424375
H          14.42025503372755   -0.00254158132423    1.46009852021591
H          15.86442154044363   -0.46553891525665    2.07812798632276
H          14.57258677527468   -2.49392189234885   -0.34726088433332
H          16.06088836867289   -2.50578590864344   -1.30579803000480
H          13.40302980258512   -2.18161431045722   -2.46473864509145
H          14.33631911276490   -3.52473025797086   -2.54737657171190
H          15.37187874055711    1.68062125091822   -3.07641268996545
H          14.36406736876881    3.98397209312283   -3.28698358620262
H          11.97708071762719    4.18494181742818   -4.15879839341081
H          10.50821751722758    2.85661241147525   -2.70024452447585
H           9.46076964752388    1.23794229712678   -0.92599561944109
H           8.99991555693469   -0.39482901425428    0.84137755363223
H          13.74184067680401    2.19806655253207   -5.69124466924065
H          15.45451610523083    4.69216782330781   -5.17854473445836
H          14.86595784509493    2.49070066945691  -10.18966522319546
H          14.23577994355737    2.26771136539459   -7.86356657506236
H          16.37331655346964    3.38763613417791  -11.90539883401304
H          19.08465942936820    6.13553787121133  -15.50505780274985
H          19.31753647706024   11.14418874781042  -13.11460253853000
H          21.35692491385949   10.16210335034856  -16.73162140387742
H          20.44839908514813    7.85402371838633  -16.64212553275684
H          17.94112936811392    9.47048670204453  -11.97652195353226
