126
 SCF done       -235.082107810032          0.000522101724
C           6.29438853780274    6.04917741135788  -10.52305090483834
C           5.51207173103392    6.03102475322287  -11.64400248526152
F           4.63901915782896    7.03320976995919  -11.85862918964057
C           5.57965882940942    5.00073099339028  -12.59118821009863
C           6.45872732936580    3.97327533801954  -12.38844215940645
C           7.28832002472426    3.94063308009076  -11.24914856813105
C           7.20750566775635    5.00056237014009  -10.29985565826523
C           8.03991960070919    4.99739062537998   -9.15560781813072
C           8.91706842362846    3.96485348403384   -8.96886175428656
C           8.97791809296636    2.89672443189095   -9.90949915682757
C           8.19436269746034    2.87893973853037  -11.02621329391741
C           9.96391052495500    1.89852131513612   -9.44818106393367
O          10.31109454110863    0.88310224229785  -10.00778232264877
C          10.39714873666435    2.37070959306778   -8.10715501824790
C           9.91182238546718    3.71581934813136   -7.92722637805782
C          10.47221318735315    4.68444126084663   -7.13020235438460
C          11.63578751702974    4.47575627622230   -6.36524048481380
N          12.60453395306389    4.34904290368586   -5.76127504144962
C          10.00566019527292    6.01068043416200   -7.06276915635311
N           9.64721089497234    7.09645063318827   -6.95597546742341
C          11.05640749927502    1.50061724002149   -7.28042033126797
C          11.17408375938443    1.49943965484852   -5.88428578538610
S          10.16679684192581    2.44043063748538   -4.83080724837905
C          10.87332425593758    1.79635124102817   -3.39608517257124
C          11.84060262959417    0.82946217620803   -3.71314499770840
C          12.01151779509358    0.66021829138949   -5.11903141641030
C          12.95329408384480   -0.25954873689220   -5.59201050656250
C          13.69315491529449   -1.03406510072187   -4.72585807853149
C          14.66867482173442   -1.98195500095749   -5.36069476174769
O          14.77181516398405   -2.06118036180515   -6.55599585655391
O          15.41922730612125   -2.73342571153967   -4.55580902673456
C          13.47379584580038   -0.90497670778875   -3.32444959295767
O          14.17574571536140   -1.70475601644287   -2.46164385553537
C          12.56508748858515   -0.00029475890607   -2.83741623700296
C          10.45541159064751    2.28625501164857   -2.11201639688109
C          11.33338312249868    2.34499236516343   -1.05203164640195
C          10.89842579005401    2.80031835057825    0.20810114215897
C          11.55276135067437    2.89986143446143    1.42827586984889
C          12.95967978872684    2.54245114436739    1.77289188019366
C          13.18280310239268    1.02170588765988    1.68468562134969
N          12.43602780201714    0.35193926381052    2.73713218768071
C          13.99291055850656    3.28951493800754    0.91008254828906
N          15.32651467489969    3.05826588272563    1.43847343459872
C          10.57356987556261    3.35887017566334    2.38377563895190
C          10.65237717222100    3.54809545933077    3.71336747881797
C           9.47016674400527    3.95585995726603    4.51962217428204
C           8.23914083486243    4.25812709906820    3.71390210665694
C           8.17939315633998    4.06704378751373    2.38406624629062
C           9.30604335691176    3.58368943765260    1.67491316024551
C           9.51232626079107    3.23338630740410    0.35811458922171
C           8.65251283117591    3.22405997094998   -0.76624373753567
C           9.11111151781553    2.76708832223365   -1.95587519271789
C           9.77676739477598    5.11244955003589    5.42897196539423
C          10.65408292870218    6.07778683016628    5.12250548216072
C          10.99635830212795    7.15989691828895    5.98519695499966
S          10.38760421353726    7.27225353665452    7.58829784600315
C          11.39383310737932    8.63410720503468    7.98832662856600
C          12.10421384960884    9.06076185204330    6.85147157423779
C          11.90001876668396    8.20438982350720    5.72446868099614
C          12.60224792238563    8.45738864414553    4.53996029919011
C          13.44555985086148    9.54444768393157    4.43867938468750
C          14.24009225247289    9.81394041166655    3.21697781956537
O          14.74388835898293   10.89249594633740    2.99031327080772
O          14.41854745013412    8.80860376749061    2.35618317316248
C          13.54475012806505   10.47359310056392    5.52836038727004
O          14.26042527670754   11.59163752996852    5.44574392349815
C          12.88678017559469   10.21004570036371    6.71475655284942
C          11.40752848878993    9.10117784636126    9.31094610016731
C          12.38549943929414    9.78187897645142    9.98592636237245
C          12.02226698273047   10.49203347751138   11.24149251030328
O          10.97208286179716   10.40899480619802   11.83851490122142
C          13.18659731669830   11.33840489766125   11.56251541013269
C          13.33235850324639   12.25995306531496   12.55812792555974
C          14.54473705922357   12.97931630615008   12.65938936873727
C          15.58310542453475   12.73268763367613   11.71482172363545
C          16.78590771109278   13.45778581007960   11.81647514269453
C          16.93319267692659   14.37610410475214   12.81879286756998
C          15.92522802632198   14.63148120866908   13.75818867730827
C          14.74975184393828   13.93828247482607   13.67201312816536
F          18.08286886830741   15.06736021814509   12.91994146274506
C          15.40592193376902   11.76634199730429   10.69647874332416
C          14.22858093457976   11.07298839464683   10.62762479870481
C          13.78480750503523   10.00973005958863    9.72771017170391
C          14.62138379836777    9.24074484340256    8.95379512934474
C          14.24694023601835    8.04855363050853    8.31018304946475
N          14.01687436763322    7.04608633926080    7.79693100932725
C          15.99829362624800    9.49333811436309    8.79000143771039
N          17.11971166208329    9.64808973948777    8.59885939997800
H           6.21894467953759    6.86165487133738   -9.81732166199312
H           4.93846203853430    5.04049901744627  -13.45741001862453
H           6.52896974692895    3.16775365753224  -13.10385932584921
H           7.95552404389203    5.80882670693162   -8.44999509537536
H           8.26431078864310    2.06558963424561  -11.73279041165079
H          11.46649253316153    0.62984458617553   -7.78352603337538
H          13.12433022741031   -0.39134588899404   -6.64926326824274
H          15.22033617633750   -2.57664904383998   -3.61726305286407
H          13.92024282217942   -1.51295713279410   -1.55081497784593
H          12.38503398033763    0.04959184389203   -1.77333260174741
H          12.36828836516005    2.08556629044890   -1.19954225379416
H          13.14345126165663    2.83115103217024    2.81396255670439
H          14.26823737790444    0.84111344836070    1.72499636440362
H          12.80104003512895    0.65538871031104    0.72892557682373
H          12.81322928367086    0.60298942744097    3.64519674910445
H          12.51351673335343   -0.65457016105206    2.64339293840739
H          13.71139269121367    4.35573630359945    0.87140466888022
H          13.97931073633501    2.90819978038921   -0.11178504645169
H          15.43088460222939    3.49147158126036    2.35035594263996
H          16.02697189101197    3.45827368537479    0.82487744304468
H          11.56674959500161    3.38314767365202    4.26662310432895
H           9.22913255792321    3.09582867939982    5.16706715546776
H           7.39061569311885    4.62678912298025    4.26888143381970
H           7.26873116869810    4.27516543148666    1.84150746421231
H           7.63611484867350    3.57308967786293   -0.66193074561630
H           8.46419549959049    2.73827843703706   -2.82049726012542
H           9.22994025295718    5.15883003768050    6.36057687336027
H          11.16838723825591    6.03873550803749    4.17154091258544
H          12.43260157513103    7.80411492177852    3.69433105098054
H          14.04086874121036    7.97451234490113    2.66398428801392
H          14.63362495301723   11.67785165803016    4.53723763277518
H          12.96123508992215   10.93357146870204    7.50933035986288
H          10.50973028465128    8.91542846880120    9.89429912313643
H          12.53303330609908   12.43871820416023   13.26156122380070
H          17.58449232103890   13.28503438716233   11.11206360487190
H          16.09820230026608   15.36781859869904   14.52690374076338
H          13.95826878939626   14.11796275320405   14.38395260324374
H          16.20499684929028   11.60694418769216    9.99015792671580
