116
 SCF done       -202.053836829161          0.000872096992
C           9.95389300449547    5.19892134541827  -15.16361884331169
C          10.86191602807777    5.89911701126334  -15.90772351777006
F          10.43321600750563    6.65874604947416  -16.93395687273431
C          12.23786324097150    5.85991847991105  -15.64637213269860
C          12.69175689214900    5.09359524689694  -14.60899658932081
C          11.79984486530203    4.35037075413845  -13.80933552325845
C          10.40376175502372    4.40538866179334  -14.09056529795751
C           9.48814426704251    3.67569095053389  -13.29629214588688
C           9.95817337870544    2.91421421614713  -12.26207939454615
C          11.35635935552741    2.84949788273978  -11.99485068114018
C          12.26019667503034    3.55028260939706  -12.73884881353092
C          11.59369444737506    1.93345488735090  -10.85938301365189
O          12.64859589152855    1.67164465182550  -10.32395331743446
C          10.26576476612060    1.34962956785521  -10.55014683691084
C           9.26422127310811    2.10172018699359  -11.26654696439612
C           7.95255405860128    2.25527339925372  -10.89286813213272
C           7.42151924973130    1.69253292074775   -9.71495118872524
N           6.98265567301333    1.29992636744577   -8.72912427226728
C           7.03376234985335    3.07401366291629  -11.57572628698229
N           6.24526492685523    3.71674019089315  -12.10860659780374
C          10.17799824417115    0.22650783137741   -9.77725060350248
C           9.15240396388444   -0.73201030256254   -9.71293767013987
S           7.94269149886392   -0.96549629978525  -10.97037724010077
C           7.23812767742898   -2.31238409443002  -10.14733239310606
C           7.87444600240638   -2.57170099691512   -8.98333931342907
C           8.97545729437113   -1.70217348396608   -8.73500549389793
C           9.56994236644149   -2.05695260412011   -7.49437326976750
C           8.89332817399975   -3.10853830702034   -6.94246776319215
C           7.74742173739175   -3.52486439997509   -7.84351874738485
C           9.16027498736427   -3.75630157147163   -5.68527472071063
C           8.29510208220003   -4.70394003226639   -5.18218359196406
C           8.53467397008509   -5.29710692687527   -3.92729811612824
C           7.80055430611201   -6.22597737201808   -3.20501390279416
C           6.52428872360073   -6.87176244272886   -3.63119754117181
C           6.65548463387492   -8.40491425269833   -3.69437974172843
N           5.68601342009373   -8.93124133700805   -4.63637094049685
C           5.35683433171269   -6.42729141739693   -2.73183157428274
N           4.08381337451824   -6.87591072632302   -3.27746149418205
C           8.50898926231271   -6.43967497441885   -1.96395641646256
C           8.22634665492455   -7.19287492548643   -0.88525136020036
C           9.12075266962979   -7.22262057395532    0.31060719807546
C          10.36150436368277   -6.40172259295749    0.18336266562988
C          10.62104922506197   -5.63551736268164   -0.89086913268285
C           9.72271799209390   -5.60640222812494   -1.98508966475618
C           9.72332003602997   -4.91445794618946   -3.17608075673400
C          10.61296707153432   -3.96264730278373   -3.72928563144844
C          10.33481218011886   -3.40491972220792   -4.93174637738101
C           9.38946899697941   -8.66547572283904    0.65269562361568
C          10.52261568039275   -9.30778250365515    0.35611996549403
C          10.77911041526221  -10.67457575620295    0.68157264733792
S           9.63899740093659  -11.66628160570016    1.55478763506235
C          10.69673128052260  -13.04218234801521    1.54202088855835
C          11.85141613206094  -12.75912128907220    0.90680080861121
C          11.91038791047112  -11.41830749257584    0.40670939210805
C          13.15074247581267  -11.24317905030512   -0.26168825592016
C          13.89822428646892  -12.38691286773599   -0.16159506711048
C          13.12722839151683  -13.46157815994877    0.58068055115810
C          15.15271634776913  -12.57409381994076   -0.79256111146258
C          16.11490486320288  -13.50874936022896   -0.54497966609522
C          17.07241309513121  -13.89662865647722   -1.61623770529305
O          17.26078207963088  -13.32335358928954   -2.66463593355143
C          17.68001232949756  -15.16017970719088   -1.14961149726545
C          18.52812835540480  -16.00287488089545   -1.80746800239998
C          18.96840516131261  -17.18072409242810   -1.16191412206900
C          18.51623018261049  -17.46521520673687    0.15966591319150
C          18.95344686101831  -18.64444436075767    0.79298783367783
C          19.80241329007117  -19.48693192158084    0.13075656971449
C          20.26034912421668  -19.22421858083573   -1.16730038458396
C          19.84443297056011  -18.08430186581004   -1.79735783634874
F          20.22109138628898  -20.61392116342995    0.73475047912988
C          17.64446346905971  -16.56907850987887    0.82164515391876
C          17.23725717548740  -15.43355911171041    0.17717073355640
C          16.38647770036253  -14.32980183091071    0.60999046427015
C          16.13894484165030  -13.97503432123619    1.91244345745275
C          15.58547836229886  -12.72629739337952    2.26497927493187
N          15.17672584636516  -11.69990948711417    2.57699018633141
C          16.49886853028947  -14.76380415784853    3.02179523750192
N          16.74656037870990  -15.38775491945293    3.95328173809153
H           8.90087453874616    5.25565102691839  -15.39118995533631
H          12.90727840289938    6.43369222352912  -16.26750865757190
H          13.74758293571058    5.04742719810470  -14.38784307902640
H           8.43681125087668    3.72914684498880  -13.53179731579208
H          13.31518149365525    3.49609543767425  -12.51527397696052
H          11.06529235274331   -0.00284960292120   -9.19400118009446
H           6.39952130035512   -2.80789361060378  -10.59574370067092
H          10.41416023185555   -1.54470574493084   -7.07272267303967
H           6.78392031890994   -3.41125259220895   -7.34278338132694
H           7.84336919156147   -4.56523512229787   -8.16088797762992
H           7.41354393340535   -4.99011470450693   -5.73485387830769
H           6.29649591113289   -6.54684418993624   -4.65130216523209
H           6.55259636684138   -8.82516233067392   -2.68051474841053
H           7.65574285798148   -8.66119419437368   -4.06052306576350
H           4.75542855735065   -8.66616843897781   -4.32438739291408
H           5.73750058706749   -9.94370074463639   -4.66936517367212
H           5.41293000356778   -5.33119302299070   -2.61355683453262
H           5.46250251092748   -6.87092703384858   -1.73861443677271
H           3.91334709894093   -6.42569712454657   -4.17160119660769
H           3.32496708681031   -6.61977908575529   -2.65457773371072
H           7.34568706274340   -7.81625260514372   -0.83099522129644
H           8.53564051024672   -6.80864319974272    1.14970735394995
H          11.03706804790098   -6.43881352194905    1.02453988339811
H          11.51797683682808   -5.03491351239284   -0.93628009496648
H          11.50279308840457   -3.68607442941548   -3.18301702628132
H          11.01298597708234   -2.68028077184426   -5.35200813406729
H           8.58391229223549   -9.19821800448335    1.14090042105247
H          11.32618843517354   -8.78973445893581   -0.15011394108325
H          10.37227065249712  -13.94810885873511    2.01361430587047
H          13.46918412754501  -10.33892703678015   -0.74834401123526
H          13.62409236837723  -13.80695134798981    1.48635130047982
H          12.97024718932518  -14.33298011283614   -0.06093258207242
H          15.33999600932656  -11.95026281521972   -1.66211112258130
H          18.86171712970935  -15.77483647635907   -2.80871046794264
H          18.62428263700310  -18.87660046807252    1.79381506430281
H          20.92984174423135  -19.92526190359708   -1.63987784700314
H          20.18403952550960  -17.86039777555384   -2.79740669283716
H          17.31118976198330  -16.80850683542127    1.81943238096237
