112
 SCF done       -209.478751679947          0.001121623339
C           9.47862957617745   -2.98416908108958   -7.32683108858760
C           9.43144564938598   -4.18229755957023   -7.98361671978197
F           9.81465835298691   -4.24748502557639   -9.27176795112691
C           8.99540354753658   -5.36211033998386   -7.36507917571991
C           8.60272166292216   -5.31633520894138   -6.05634144003548
C           8.63281792451709   -4.10790147114883   -5.33023983564291
C           9.07731339397844   -2.91813349186488   -5.97829240815425
C           9.11104975609983   -1.69262811781365   -5.27283330104113
C           8.71964917410366   -1.66311092266325   -3.96186417073990
C           8.29156257261850   -2.85860963615875   -3.31405097567065
C           8.23960901873876   -4.05255358371013   -3.97425436988250
C           7.97435619869956   -2.56158525450744   -1.90507197745086
O           7.52458084516613   -3.30667978778415   -1.06457438181241
C           8.37981008297118   -1.14018104624655   -1.70761337827481
C           8.63591577146407   -0.56228309962473   -3.00903962269783
C           8.59537740566575    0.76912321166978   -3.32446492576029
C           8.79039886033523    1.27991199423398   -4.62336182269333
N           8.94921155833441    1.74739823247059   -5.65922701065013
C           8.26786272786773    1.76837029053601   -2.38719617265209
N           7.97049798922253    2.59736594524875   -1.65013046212815
C           8.53327989811272   -0.66583987654725   -0.44507099746769
C           9.26045978754818    0.47995293020245    0.00728052243020
C           8.99282109002135    1.12221997841774    1.22734941748785
N           9.83515640763300    2.01546463341066    1.80522484808654
C          10.89540202364892    2.45364313318730    1.21352732774921
C          11.22307929833240    1.99578258655627   -0.08515780043680
C          10.40446768045692    0.96752709914785   -0.67680372925058
N          10.96309916701582    0.64473606995229   -1.82975724734687
O          12.04201733841411    1.42739839355835   -1.94820621338498
N          12.21561021844480    2.23975785468515   -0.91505131107927
C           7.77477109946218    0.87626387619229    1.98172982732136
C           7.80853102997334    1.02484479937940    3.35235967220782
C           6.67530628847375    0.72197986002126    4.12931264871624
C           6.45781225412965    0.70908867057074    5.50552587618004
C           7.37653026306395    1.02275929577983    6.63117224361698
C           8.39184560661358   -0.13648589079324    6.88570802386819
N           9.31937972749174   -0.44986290635445    5.83409249593781
C           8.07971799120075    2.37893040767208    6.46843838308204
N           7.07875455897143    3.40796077219649    6.25477215410318
C           5.09292318803184    0.27517881646296    5.70170421834988
C           4.39366279635814    0.03798728815318    6.82553473123429
C           2.96297110037765   -0.37963233726896    6.78236204892241
C           2.41472546007948   -0.59399889183173    5.40614018204381
C           3.14049923667139   -0.38283730230522    4.29147843611245
C           4.48366915379547    0.04964447062095    4.38383287945686
C           5.45492660962966    0.31335039748865    3.43945398520805
C           5.42770673184601    0.25672419771171    2.02730971421694
C           6.55754287988039    0.51848255421213    1.32271645463909
C           2.17091820312877    0.71621420945253    7.44741122796579
C           1.34776504547957    0.52329795502062    8.48198358937409
C           0.63676660176920    1.57312209108253    9.16355301742894
C           1.08413411120670    2.89139115217690    9.28179342033313
N           0.36153326491134    3.89030586767017    9.86400455722687
C          -0.79403090606398    3.68108756501216   10.39985567901179
C          -1.34692118562437    2.37730130560594   10.41721416370468
C          -0.60881268893663    1.31258013064909    9.78601724021933
N          -1.31668162989100    0.20766130662618    9.93189663305971
O          -2.40927965477745    0.56016776146970   10.60407003331868
N          -2.45260276123310    1.85203585795039   10.90530785994410
C           2.41640410124997    3.26726515017134    8.87781118376021
C           2.84833421815847    4.50088329621488    8.52993830178677
C           4.29812202636047    4.83245745981734    8.56793566959257
O           5.21817064194892    4.04241844403707    8.60972873845254
C           4.35461875096906    6.30242026979406    8.60536643454806
C           5.43417893403893    7.12060408623814    8.78535203498305
C           5.24112216487435    8.51898096202340    8.83435826053143
C           3.92392425497585    9.04850939058771    8.69729929430211
C           3.73709482069223   10.44295684709912    8.75937473896707
C           4.81918483448125   11.25776200399516    8.94638739642319
C           6.12190966120126   10.75726305671050    9.08056086052920
C           6.32121155638739    9.40594921724273    9.02404071091084
F           4.64303668071553   12.58855266480909    9.00605784348141
C           2.82511852398301    8.18043961335580    8.50053407977448
C           3.03734272251407    6.82926837883575    8.45042227996009
C           2.11515742427765    5.72042443852119    8.24098190690845
C           0.87176853911064    5.79600438917982    7.67983133996572
C           0.15244597063271    4.65637509417577    7.26299036353491
N          -0.42280113141689    3.74956405023546    6.85777485606334
C           0.21695990251517    7.00883433769982    7.38211000987556
N          -0.35360801524774    7.97499652848011    7.14163749689504
H           9.81761552537198   -2.09519548971613   -7.83537763177360
H           8.98020522483761   -6.27842014929253   -7.93365166957134
H           8.26396308558500   -6.21223684172046   -5.55797076188844
H           9.45970667736172   -0.80804451030041   -5.78192022390992
H           7.90608609697013   -4.94612464645296   -3.46782638598799
H           8.13225072277846   -1.30588618590359    0.33610388252872
H          11.52640244491096    3.15152539896154    1.74355918231945
H           8.73383867096045    1.34602363696860    3.80055097131782
H           6.77356407056468    1.09541064303715    7.54261305420424
H           7.81879507455037   -1.04338077782776    7.09985196161716
H           8.97374157444834    0.11861532098705    7.77590460698193
H           9.92194266732958    0.33613249064522    5.62296619939120
H           8.83891455244571   -0.73214801515254    4.98790969906387
H           8.73828083127619    2.38061110499810    5.59784078401822
H           8.70467935200044    2.54778654954221    7.36455231849265
H           6.47313632868968    3.48670407099675    7.06768339794168
H           7.52418901262068    4.30786762542816    6.11440264547348
H           4.81937655106905    0.17435669921779    7.81058345350290
H           2.83963183142068   -1.29896923755704    7.37106598711321
H           1.38505534344878   -0.91187640891474    5.35710219031847
H           2.70957862003797   -0.55162403377913    3.31563838401575
H           4.50655270079873    0.00731003810262    1.52286815720364
H           6.54155248774567    0.51252084292043    0.24329863228923
H           2.27751358790467    1.69260191333958    6.99571903391747
H           1.14066382051172   -0.47619189991529    8.84301270200148
H          -1.31181951726272    4.52418728242496   10.83264767122139
H           3.18020412596160    2.50270020512090    8.97713447069255
H           6.42560172035154    6.70703505763313    8.89533994998288
H           2.74861246378050   10.86267679678356    8.65711316404989
H           6.93680570033430   11.44850021713747    9.22587918196352
H           7.31581080908496    8.99841358820053    9.12600932082542
H           1.83779188463529    8.60438690614218    8.40563685205072
