146
 SCF done       -236.827613286852          0.000407800600
C          10.25365924702794  -15.06552049449395   -0.09742744856708
C          11.02963507723037  -16.19055444901811   -0.06460249843987
F          10.53569376047697  -17.32062002451441    0.47535533542984
C          12.33375352434942  -16.21908044183231   -0.57584726278765
C          12.85202229123427  -15.08089609423180   -1.12867582460076
C          12.09594146713597  -13.89283308954307   -1.18901431011510
C          10.77243318872968  -13.88407455570401   -0.66143398976957
C           9.99756647421407  -12.70064665879955   -0.70029578330793
C          10.53029601294294  -11.57002007455942   -1.25511659139785
C          11.84625940538148  -11.58953682443706   -1.79718979041089
C          12.61975596779837  -12.71240171732668   -1.76388415997302
C          12.15191110918012  -10.26298101842129   -2.36675795138819
O          13.18876894950323   -9.89606184179481   -2.87926277933054
C          10.89935212969335   -9.47983470444793   -2.24026541394997
C           9.99848958707451  -10.21447258350679   -1.39360234819233
C           8.98723043713822   -9.69726268244349   -0.61662223728403
C           8.74728114460241   -8.31681343950213   -0.50366404208043
N           8.57530212566740   -7.19033950203672   -0.35540661166065
C           8.17567035523693  -10.46670323994340    0.23813217836455
N           7.46681243458422  -11.04887663474487    0.92916088036027
C          10.84613994650283   -8.32515006149085   -2.97958029785952
N           9.84293777176357   -7.57377404656741   -3.43921004305514
C           8.45901788318064   -8.01227798486947   -3.52743436329404
C           7.46709287367915   -6.87980078070484   -3.30744112274364
C          10.18483265544793   -6.50032031596939   -4.30741239444887
C          10.56571143931287   -6.71116277894807   -5.59802937475360
S          10.82166327234028   -5.25264385130393   -6.45415803830765
C          10.43872101399701   -4.33207569056408   -5.05623762852749
C          10.11375089895535   -5.10654430411868   -3.97461044649895
N           9.73601226935715   -4.60148762831105   -2.73760902141197
C          10.45720773238709   -5.05372536583908   -1.56394986004884
C          11.76582684115813   -4.28786244168789   -1.37332029948265
C           8.98701975878299   -3.44941524965862   -2.70259318524128
C           8.75416873022027   -2.67035027807540   -1.63295352724250
C           7.89551721345688   -1.50795216306737   -1.60953251828717
C           7.21879415002878   -1.02425377297444   -2.70316957920109
C           6.40666977222392    0.12496595408156   -2.59579864291080
C           5.63940793050534    0.79652536527017   -3.53673835043871
C           5.50714861817345    0.38518528167795   -4.97085229354874
C           4.21729707547824   -0.41706707682146   -5.23861607444086
N           2.99706153349292    0.34019725075215   -4.98617622221483
C           5.68576350397500    1.55368638279462   -5.96540177348624
N           6.89811530472826    2.32446530026224   -5.76977499539912
C           4.99268521842294    1.88779568088334   -2.84870655351218
C           4.12448434941715    2.83607859186035   -3.25030959603568
C           3.49233603855531    3.78639915855694   -2.29929069403778
C           4.03614861067289    3.72973326507227   -0.90630196902598
C           4.93851647850812    2.81135399608914   -0.52048073697999
C           5.42500924765909    1.85296617724895   -1.44241048880475
C           6.28664860958527    0.78624146245503   -1.30400377587493
C           6.99420677752883    0.27222186196394   -0.19189267857624
C           7.76628990160900   -0.82955193612846   -0.34876374763295
C           1.99007274933259    3.55330089607011   -2.25223478906143
C           1.43692876370357    2.44390806099834   -2.74193014701297
N           0.10117594436659    2.11173291708184   -2.76533351338443
C          -0.92664463756157    3.02078022912456   -2.30915514249265
C          -1.13767038317791    2.89714388570386   -0.80002846386093
C          -0.25852086067819    0.97313246792166   -3.49099389087196
C          -0.93288875741988    0.99550845220756   -4.67864056814230
S          -1.20035866081026   -0.57350526007509   -5.32126724879698
C          -0.38875388496398   -1.29065709346783   -3.99687805208114
C           0.05146907500383   -0.36817695804880   -3.09419734449299
N           0.63682628907782   -0.75073314360502   -1.86323124000163
C           2.08179559540571   -0.87397616891285   -1.76557543190546
C           2.66927985362258    0.02970170184616   -0.68566635910389
C          -0.19531922702929   -1.24039982852601   -0.93854561425863
C           0.13289810395756   -1.88594006786132    0.22494663150841
C          -0.79350813516626   -2.30479543011500    1.18794903892324
C          -2.17093009451978   -2.38454519920220    1.17507333460120
C          -2.87181962308837   -2.36018177780297    2.47912318243826
O          -2.37143941465699   -2.45548499868390    3.58043144328111
C          -4.29928078969854   -2.14320197119577    2.16011885938614
C          -5.35071965225758   -1.93667577922034    3.00269908166576
C          -6.63589895150763   -1.70894185708786    2.45801009687582
C          -6.80092725638146   -1.69863538881297    1.04327854949495
C          -8.08064695262957   -1.45913097096661    0.50675416463227
C          -9.13388989780803   -1.24628511886244    1.35173695749289
C          -8.99325868153875   -1.25606383072681    2.74514950137992
C          -7.75672745717159   -1.48580411313530    3.28242272959643
F         -10.35892283898093   -1.01559311266589    0.83897112437218
C          -5.69192028210730   -1.92994559317742    0.19438889896366
C          -4.46107243352562   -2.15334062236178    0.74635747266277
C          -3.15999491374764   -2.43894959780131    0.13812018271462
C          -2.99710267143988   -2.91062052516078   -1.14830731987335
C          -1.79005419808461   -3.43727039575497   -1.63044844867489
N          -0.81787342705265   -3.87037505079802   -2.06663673258367
C          -4.01974078937304   -2.96572191555398   -2.11104739615354
N          -4.79878571329893   -2.99740573360049   -2.95581709112713
H           9.25467638839133  -15.07884350456661    0.30971539295161
H          12.89911821958260  -17.13589265575409   -0.52221328088179
H          13.85458656580149  -15.07815464033303   -1.52944415082132
H           8.99727065199493  -12.72371738126451   -0.29756431795147
H          13.62013275844789  -12.70214792739553   -2.16987136983634
H          11.82650540682473   -7.99732096238285   -3.32341684291429
H           8.29224749397503   -8.80183261730041   -2.79733989341394
H           8.30621807491711   -8.44188044333586   -4.52746506930677
H           6.45720528268098   -7.27810655388813   -3.35444229882436
H           7.57022868868083   -6.11348902562336   -4.07098166274642
H           7.61868467086487   -6.43002782627372   -2.32922291353942
H          10.69301546906270   -7.65521529641937   -6.09031548681552
H          10.47680768060405   -3.26250942476094   -5.10132782621716
H          10.67306217931756   -6.11619710770808   -1.67158375549131
H           9.80713732063058   -4.93871632950042   -0.69595956099266
H          12.41986811417008   -4.43822115290432   -2.23029291555920
H          12.27550398651909   -4.64239107393534   -0.48178700502588
H          11.57628252995127   -3.22257118229671   -1.26948126776047
H           8.51808103360010   -3.22790268487603   -3.65082454977297
H           9.22535035094540   -2.90063312557897   -0.68932683718498
H           7.29961877297593   -1.52056352777965   -3.65916941768036
H           6.32717431974274   -0.31673377992447   -5.17381089845923
H           4.20711948447747   -1.27955709426767   -4.56448494279276
H           4.26589965748472   -0.79760667130612   -6.27337471601633
H           2.94037674816673    1.11965725032996   -5.63426428594557
H           2.19368646947500   -0.25304140350554   -5.17428744926748
H           4.85102507787328    2.25264368765631   -5.90392045792933
H           5.70994620816714    1.14856408088580   -6.98280872669808
H           6.89642077831794    2.72754137354160   -4.83746524744298
H           7.70997196517531    1.71759999331164   -5.83099719929162
H           3.79462156589747    2.92164789450220   -4.27377112655481
H           3.63984867882950    4.80773335945076   -2.68587272857675
H           3.64019022160410    4.45454355775129   -0.21052691852512
H           5.29919614358662    2.78467016953301    0.49815829096650
H           6.90939450295068    0.76244017449444    0.76738718495195
H           8.31061482781797   -1.23102993221971    0.49454563201119
H           1.42070664053308    4.32586941348707   -1.76057346451217
H           2.05875609432783    1.70061918780619   -3.22270346843445
H          -1.85740215758168    2.78018204905045   -2.82839658796053
H          -0.64679524452529    4.04749770149831   -2.56680904835047
H          -1.45167109232397    1.88751644578732   -0.54450498400882
H          -1.90304347431514    3.59418459316203   -0.46965948837592
H          -0.21347661155777    3.11097289120375   -0.27011981732018
H          -1.29686308447059    1.85443697664349   -5.20620367762921
H          -0.30632574800460   -2.35723629850933   -3.92142151868723
H           2.50510499081624   -0.59533567382828   -2.73191074741795
H           2.33470269684691   -1.91995381391208   -1.56182558291797
H           2.46618735719671    1.07259913584344   -0.91046350699102
H           3.74583935085605   -0.11025370558230   -0.65430198134023
H           2.25894332281812   -0.19553570898083    0.29380598477214
H          -1.23832980397189   -1.02833172464216   -1.13864523213227
H           1.17053505400949   -2.05083476579038    0.46642256091351
H          -0.37337006299651   -2.53301902905264    2.16396348273045
H          -5.20707419789124   -1.94528684688360    4.07277820149768
H          -8.22699856671758   -1.44881418992793   -0.56215665726122
H          -9.86038854703758   -1.08257849674453    3.36248397180491
H          -7.62262864594769   -1.49786160160179    4.35375442883095
H          -5.84660045476774   -1.91396579420050   -0.87301976154467
