138
 SCF done       -261.463766124990          0.000596867342
C           1.97850337065639    0.94128747655982    1.12661690865715
C           1.05934961109813   -0.11703365829191    0.55471030822114
C           1.57412215952490   -1.02221481275638   -0.37233524258977
C           0.79802238808668   -2.06598132572967   -0.84416082772366
C          -0.50450874941110   -2.21949711004996   -0.40132768412744
C          -1.02931459937005   -1.30940634403877    0.49825010735794
C          -0.25332253695973   -0.26669163693979    0.97597732550452
C           2.59331769078655    1.85865661207123    0.07325533094815
C           2.22480312712650    1.79683627609523   -1.26362823376688
C           2.79661453288512    2.65908576670370   -2.18487963287914
C           3.72785417581531    3.59907415302038   -1.78300885796394
C           4.06347364485683    3.69642440487568   -0.44333831475574
C           3.49196482619482    2.84117951068295    0.47903174660164
C           3.03174536004278    0.27887936575698    1.98453807774431
C           3.16953065747244    0.76089849341254    3.23950505329399
C           2.23658054926020    1.80295617838870    3.60280708637193
C           2.19174731612189    2.47108871644360    4.79312455623876
C           3.10815024138597    2.25099696825734    5.84073448274183
N           3.83240088114317    2.11766525150791    6.71973381900192
C           1.20842348692527    3.45185965464520    5.03991422659580
N           0.40823232427088    4.24980284106979    5.23359387809567
S           1.10598368434035    2.08265999292343    2.31501300873680
C           4.12937229127295    0.19729440301245    4.11035515367852
N           4.92812140160097   -0.34897119435477    4.72263567922587
C           3.76096904946062   -0.91072585579330    1.52463428862348
C           3.18825613604460   -2.17600887660867    1.69340193763104
C           1.92819657991048   -2.41650117530568    2.41334164954243
O           1.25649106021198   -1.61981426011746    3.00314471810894
S           1.52234177598637   -4.15446351903837    2.30359522547986
C           3.01873885900105   -4.56008013032163    1.38712428135600
O           3.25916187376253   -5.65947327635346    0.98119037851160
C           3.80597119624432   -3.33321872230406    1.21021287832385
C           5.04041402771505   -3.29542588255269    0.55541773942601
C           5.62577139317560   -2.03395013610471    0.41187745553692
C           5.01248049874657   -0.87563554492444    0.90814809344741
C           5.82635488628049    0.34172006745955    0.78763663296173
O           5.59951533703508    1.42145212149757    1.24872638771880
S           7.31186463902349   -0.04296255778300   -0.13635883782214
C           6.92693015364699   -1.79517092239552   -0.23493712499451
O           7.65200194733221   -2.58396829395735   -0.76978467942296
C           5.72140476284298   -4.52338880755070    0.12111423605436
C           5.92471926285833   -4.78106270644810   -1.20890345607566
C           6.64774853105597   -5.93094676480501   -1.58682037857111
C           7.06438591318158   -6.39496192879202   -2.83489049780641
C           6.90233581707681   -5.79133791892616   -4.18345638639110
C           5.46862868942581   -5.96136948889912   -4.73999214820429
N           4.47922590807643   -5.34027031247814   -3.88187917140655
C           7.31343568709457   -4.30131538405518   -4.21621089841387
N           8.63630142662120   -4.14161041149223   -3.65156830400823
C           7.83015943473171   -7.59957640790652   -2.59261085530058
C           8.48220309842312   -8.41872465049231   -3.43982750907566
C           9.27251941969313   -9.57289743921520   -2.94296466957568
C           9.24531816434498   -9.76941743874470   -1.46072521691178
C           8.57478289512564   -8.94452888240442   -0.63001004073426
C           7.85943108984417   -7.84589392687630   -1.15076231241380
C           7.13518384943248   -6.82067879649470   -0.54773031598665
C           6.87287448063883   -6.54194654720108    0.80513185582714
C           6.18281420883075   -5.41162665177237    1.12987030709664
C          10.71576145276088   -9.46890017088290   -3.38144834658759
C          11.27057454039019   -8.33169841315543   -3.77336672999115
C          12.65013923332017   -8.20719063862622   -4.23902381162791
C          12.90286304854780   -7.81294402006245   -5.55808865830794
C          11.84223268791147   -7.56087117474363   -6.53977028476189
O          10.65760836477797   -7.66293730727495   -6.38758050319228
S          12.59996980940717   -7.08319240138452   -8.09624247286848
C          14.26662107306422   -7.22657887043675   -7.45613178573620
O          15.24099702083822   -6.96502144241322   -8.10059866887041
C          14.20009043545967   -7.68282571946376   -6.06056790704043
C          15.32337828354083   -7.94287495951708   -5.26675624147466
C          15.07520714832225   -8.25569792169700   -3.93003893825228
C          13.77309682273429   -8.41457098453110   -3.43338712228435
C          13.71206713333266   -8.77430104800269   -2.00769045325304
O          12.74873460075592   -8.99955776386527   -1.33516777614798
S          15.38809989871465   -8.84961678535004   -1.35724319703474
C          16.13114367645082   -8.37703510528201   -2.91519084782235
O          17.29978450947745   -8.15958127323480   -3.04864347212756
C          16.66283780382015   -7.88129521199884   -5.86726355842455
C          17.37659067455699   -6.73467883006564   -5.91271908546348
C          18.58075800812901   -6.79147296318894   -6.70936555239919
C          19.48262931793585   -5.78176776807243   -6.88999027717164
C          19.37307806807900   -4.52234055592116   -6.26745056883947
N          19.33863879442247   -3.48417332390093   -5.78151784520010
C          20.60770107573472   -5.95404123357825   -7.72322088388565
N          21.52059569157400   -6.10011068114545   -8.40140052118891
S          18.72852736978954   -8.34104309402237   -7.47854978275018
C          17.25231382344375   -9.06508012472290   -6.59941257183098
C          16.22150048175244   -9.62309209445305   -7.55811606817359
C          16.33678935020279   -9.48819716263437   -8.93347315284289
C          15.32635658326194   -9.93208766953112   -9.76978312296295
C          14.18500387952087  -10.51051039603530   -9.24494739733503
C          14.06942042723785  -10.66723359947753   -7.87444270434242
C          15.07982606336006  -10.22971299206132   -7.03653686726400
C          17.83097971391081  -10.10503607052333   -5.64481877285690
C          18.74989248270242   -9.69659967690557   -4.68248632999414
C          19.30667147653282  -10.61034875754019   -3.80856075089745
C          18.97345646603745  -11.95110563170013   -3.89885258276828
C          18.10063221899209  -12.37062211437952   -4.88602158600541
C          17.53608149574163  -11.45662220374095   -5.76053386838079
C          16.89502227655696   -5.57567960988559   -5.26278469209542
N          16.40027501230010   -4.70134299165893   -4.71331382701112
H           2.58395696393200   -0.90581549053938   -0.74122607328510
H           1.21927191634160   -2.76109082970524   -1.55585184436892
H          -1.10529089854903   -3.04133036117484   -0.75927543024232
H          -2.04626830753542   -1.41250977263402    0.84328480998188
H          -0.67733876112240    0.42229304967824    1.68894323980224
H           1.48212717902086    1.08889958853512   -1.59770640659178
H           2.50201758635597    2.59348457602828   -3.22157763020386
H           4.17554925167872    4.26412293314499   -2.50558593761106
H           4.76877418371530    4.44078647662521   -0.10883209492759
H           3.74938548468729    2.95070839340871    1.52083427658775
H           5.52386155266388   -4.11942953931793   -1.95903067624782
H           7.57239456578218   -6.31929675670819   -4.86797197233929
H           5.29224824377806   -7.03828663320357   -4.89317569027646
H           5.42755054575866   -5.46934430487200   -5.71486144542976
H           4.32098751881859   -5.90426831617364   -3.05367070070201
H           3.59682465020744   -5.23950014637273   -4.36863078401196
H           6.53927872524004   -3.70788758713266   -3.71320761800307
H           7.35156360170109   -3.98776714419366   -5.26286666868038
H           8.60967072648272   -4.22916886988785   -2.64094027485797
H           9.02006218061794   -3.23185522811760   -3.87557317953496
H           8.49291591238252   -8.25968727309807   -4.50947755537257
H           8.86881494328682  -10.48310200946116   -3.41543182190196
H           9.82017598577831  -10.59816363659055   -1.07932418615423
H           8.58673934690385   -9.11042211493624    0.43657911390200
H           7.22679459933875   -7.21222613707525    1.57303032191232
H           5.98678649924227   -5.16492275241282    2.16248814916952
H          11.28861530165642  -10.38379927201106   -3.33430829793718
H          10.68834572347537   -7.42141763167580   -3.83626364978982
H          17.21158485746059   -9.02666375372345   -9.36295789538571
H          15.43300616567668   -9.81345503726610  -10.83677767551960
H          13.39169043413241  -10.84175919594815   -9.89715439016395
H          13.18949198741503  -11.12824764083466   -7.44985005370794
H          14.98282708339048  -10.37601530237574   -5.96940503496164
H          19.04238268608890   -8.66085158355346   -4.61073270342136
H          20.00526205774404  -10.26951208249016   -3.06072061869973
H          19.40620029869972  -12.66631876111036   -3.21619081664961
H          17.85690057302849  -13.41754443194630   -4.98792242849674
H          16.87759044924334  -11.81161321671451   -6.53820199010806
