120
 SCF done       -228.056612459515          0.000662935866
N           5.30260887029776    5.64970189331724   -0.32868550069785
C           6.12745489212986    5.68954230006801    0.46765178366158
C           7.19056849303208    5.73402672127459    1.38928175468469
C           8.34908575771323    6.41222001606067    0.95976145906632
N           9.29553780572554    6.96349817496232    0.61984568049324
C           7.14683471744973    5.12463135972461    2.61445735419069
S           8.49992710581897    5.09833061826580    3.69797309538215
C           7.61689066702816    4.02202396775182    4.95291080049250
C           8.43916558394494    2.75353047194016    5.03058722807440
C           9.78888418682720    2.87317725137919    5.35604161149435
C          10.60045543766291    1.75776281970074    5.41496963520949
C          10.07792969586053    0.50405359014219    5.14024598557673
C           8.74355219051993    0.38011556681294    4.80151327590733
C           7.92618835868513    1.49763521479402    4.74169335494833
C           7.54130971477941    4.78851934121607    6.26037757192942
C           6.93037758391652    6.03927422615473    6.26121059659555
C           6.81638328844938    6.76315014816142    7.43214944755985
C           7.31315985873388    6.24754489986320    8.61764816434535
C           7.92172508162503    5.00518084631713    8.62314579262750
C           8.03584425923050    4.27490901286048    7.45308015974582
C           6.23160690356885    3.82524681132973    4.39246413378886
C           5.24780491341063    3.08723538457298    5.12486190017087
S           5.18760138591705    3.20333025259597    6.86850697152285
C           3.79421475899715    2.17430847843189    6.94908885989608
C           3.17263969034299    1.93673160509175    8.22771269423331
C           3.11633551382535    2.94044319149258    9.20848516508041
N           2.51575943585483    2.77075258441013   10.35829587095408
C           1.94489733228419    1.58446730043264   10.59356443697457
C           1.23552458488867    1.47540019550981   11.83669001672333
S           1.20011653302239    2.87081016890949   12.84812061217100
C           0.19470688604589    2.04393734422375   14.00365544915387
C          -0.25503367476182    2.73042859393334   15.18482191569919
C          -0.24174487890892    2.19444485212383   16.44068268752587
C           0.42027233674807    0.98812117646998   16.74162317566278
N           1.03846768080095    0.04271758816824   16.94027328654395
C          -0.78551822823114    3.03135284251515   17.48351846251987
C          -0.96183382599817    2.68815146788485   18.79726816566072
C          -0.69279646536256    1.40879181489312   19.31893129558130
N          -0.52404798552201    0.37654560504272   19.79063838162945
C          -1.47894422638925    3.61909419039797   19.72132816730291
N          -1.89249492176330    4.38364880344694   20.46960417744076
S          -1.22376828689686    4.58947880003285   16.86165869739773
C          -0.72044676272082    4.16173087431103   15.11015114587495
C          -1.94937648298065    4.41435964930840   14.26531980840116
C          -2.52116381747023    5.68425592078884   14.32301651399221
C          -3.65369484585825    5.97991322541126   13.59080527948921
C          -4.23776184879322    5.00890022250369   12.79247679295999
C          -3.68282255647189    3.74417050577445   12.73959936545344
C          -2.54683410568525    3.44544490266643   13.47469129022130
C           0.46008043146684    5.03810898582859   14.72362671081618
C           1.57723192472290    5.06835221368784   15.55210742091336
C           2.67479429378758    5.83926992107445   15.22135709442068
C           2.67193618025207    6.58683407986181   14.05581266773395
C           1.56676245133253    6.55582670821580   13.22467130359715
C           0.46495298655450    5.78539978007258   13.55215895517611
C          -0.09381723439137    0.74673656180635   13.60009345281668
C           0.49453654832487    0.43739013474810   12.35792273963382
C           0.22694029256332   -0.86214366052875   11.67572603295663
C          -1.23354122320194   -1.24028224585267   11.97115492276995
C          -2.16128627332764   -0.17332439519754   11.46415959273852
O          -2.97476547667368    0.43052993066072   12.10049001304101
C          -2.01663716259647    0.15793996047972    9.94411283047113
F          -1.61203143601761   -0.89265367905227    9.21507939278677
F          -3.17591259082806    0.56911399390950    9.43142338642190
F          -1.12292704945898    1.14005204272316    9.74469871532542
C          -1.39500883236478   -1.43997306679194   13.47776734453867
C          -1.04197163302672   -0.18475596218351   14.29334730778617
N           2.00079669518694    0.54194669114698    9.76386371240051
C           2.60277251317090    0.71613282321775    8.60773982706025
C           3.42989127777895    1.73175041821641    5.69981095869622
C           4.24725492022343    2.24772061412680    4.67218380390460
C           3.89202598692869    1.80980501401161    3.29523689498203
C           2.40538140453833    2.15783707859396    3.09569981067093
C           2.07973335520033    3.60886646496779    3.43209635726304
O           2.28329304440649    4.13555164993651    4.49700356303730
C           1.03367584414166    4.23949426768394    2.46667010971349
F           1.21702352344812    3.93052148381013    1.18173832841819
F          -0.18679488473024    3.75028444385027    2.79336461478812
F           0.96136532023336    5.55935266711581    2.57315579741499
C           1.54548045021353    1.30317668652531    4.05912964611389
C           2.29149287291037    0.83864255975792    5.32979779084703
C           6.01497878649033    4.43724077434339    3.18397434341158
C           4.73325355260244    4.52462132552402    2.62378204983679
N           3.63425808061513    4.58518343364779    2.29069713452267
H          10.20060315214370    3.85249688656129    5.55543721973067
H          11.64346019593451    1.86889857813633    5.66891997704062
H          10.71118896283520   -0.36883302634303    5.18135543405103
H           8.32949529459696   -0.59060450119902    4.57366268781349
H           6.89021758810907    1.37463227021842    4.46583055312441
H           6.54115071781612    6.45149617864502    5.34089048253591
H           6.33818263708916    7.73046659050225    7.41646004849868
H           7.22467013386741    6.81211062103871    9.53323820148666
H           8.30931416062431    4.59439865438933    9.54304803092363
H           8.49553522939177    3.29911618338211    7.47695090817753
H           3.56582241944370    3.91053561110674    9.03550620779357
H          -2.07085979629707    6.44002406435748   14.95156530679514
H          -4.08285606806666    6.96873166375624   13.64753127232828
H          -5.12429442772229    5.23787084128381   12.22112332885858
H          -4.12929194507048    2.97227756068822   12.13211922265264
H          -2.14220622631132    2.44893721757700   13.41569385984288
H           1.59043102080289    4.49188347001892   16.46646009979883
H           3.53225852517130    5.85483295139845   15.87675205355994
H           3.52899272893675    7.18994676335373   13.79754303825886
H           1.55681799035955    7.13103311954509   12.31157213080680
H          -0.38425175156704    5.76017661294332   12.88743139291341
H           0.87604491724680   -1.64046859454521   12.08330846511321
H           0.44535598019437   -0.77658112508967   10.61241056587758
H          -1.48069943015632   -2.16577066910543   11.43778931041690
H          -0.74347792589756   -2.26237389292104   13.77422329736514
H          -2.42159158054958   -1.72795963701978   13.70547229846577
H          -0.61469013687318   -0.51214479815123   15.24204855324737
H          -1.95494293176221    0.36908402985137   14.53017834946978
H           2.66239959802690   -0.15965113993609    7.97528572663201
H           3.98797094632880    0.72123635528929    3.22757079148221
H           4.51391725781593    2.24716975900041    2.51915903095350
H           2.12333253045289    1.95503503872514    2.06145506241610
H           1.19040735922044    0.42306097028758    3.52237192426254
H           0.66640521328532    1.87617343872883    4.35561380082706
H           2.69680727549761   -0.16355445167108    5.15318903580295
H           1.58213285229781    0.76742390844634    6.15384372904365
