94
 SCF done       -173.767525586376          0.000836547556
C           4.70920897242077   -4.69809527744639   -5.28513796765278
N           3.44821913292359   -4.38252136400857   -5.26537249706824
N           2.97866533273546   -3.28361788151529   -5.82188297094207
C           3.72492876102867   -2.41511891211678   -6.47021304374032
C           5.13166873254001   -2.66065794294247   -6.57060021352388
C           5.63829757144491   -3.85205124197771   -5.93574393260207
N           6.94197500647247   -3.88191057947979   -6.13998257450366
O           7.21810682798742   -2.79177576812797   -6.84896178529667
N           6.15758736643807   -2.04664115828951   -7.12081148528603
C           3.12749791373410   -1.23986911451401   -7.04989613682020
N           3.89597154564829   -0.34468535439048   -7.64013599472611
C           3.06311664744557    0.62929138306440   -8.06940058876692
C           1.67091004401994    0.32692947599827   -7.72794310807915
C           0.78582260095652    1.40349923755078   -8.19553537839906
O          -0.41930992469153    1.50150846668902   -8.08639425707411
C           1.72690402923589    2.34792125205061   -8.83049825116457
C           3.10891579506873    1.83574494492522   -8.73041227387158
N           3.98173755284576    2.69614062023928   -9.30872323846920
C           3.24547379102632    3.68567291989609   -9.75079669728407
C           1.82606400757806    3.53236102085084   -9.48499835788811
C           1.69121882518059   -0.88197044106497   -7.06575597852012
C           0.64324811834756   -1.65918618973016   -6.50108253974341
C          -0.65644101573887   -1.28071516509496   -6.55678012996571
C          -1.77030395544062   -1.98982882836707   -5.99437393568023
C          -3.03624455468526   -1.44395278828256   -6.14323399937774
C          -4.15252684825766   -2.08039512451924   -5.58457887003984
C          -5.50368671225803   -1.72535399912220   -5.57696722257547
C          -6.09207371258500   -0.51844601343698   -6.22025952251467
C          -7.08931545837973   -0.90765886579973   -7.33269135071618
N          -7.30912351924389    0.22311919565353   -8.21091221962842
C          -6.72676412884776    0.40973714771076   -5.16975841371321
N          -5.81695837172136    0.55394329070766   -4.04545543742080
C          -6.19761772103568   -2.74261237969866   -4.83197821051323
C          -7.49124175639869   -2.88012970074967   -4.48004183243201
C          -7.96918885328094   -4.05349966600284   -3.69517331391897
C          -6.90045964665632   -5.00048030797488   -3.26332452667237
C          -5.60640981988766   -4.84598013752917   -3.61321246902527
C          -5.20588566423480   -3.73818653842573   -4.39006004956824
C          -3.96878056869668   -3.32279384673200   -4.85559174289504
C          -2.67423756116841   -3.87114973224998   -4.73058258849112
C          -1.61396211603284   -3.22148819199124   -5.28147368726342
C          -8.92954867171645   -4.79842919659787   -4.58386911841415
C         -10.26095839410278   -4.79363119932051   -4.42335347127128
C         -11.13309709648777   -5.50576999168995   -5.30249286639527
N         -10.67281012859743   -6.32248689314798   -6.23986296185904
C         -11.75680998382505   -6.82221574148062   -6.86010631201993
C         -12.99962078961777   -6.28046947851325   -6.28882531298912
C         -14.17528544247104   -6.84384413006746   -6.97997852327309
O         -15.34776068886203   -6.61835536674649   -6.77563672376826
C         -13.56308393554073   -7.74036227833097   -7.97409005886441
C         -12.08905723389134   -7.69660301088790   -7.86992895144908
N         -11.52040568191089   -8.51424611143804   -8.78521752473978
C         -12.52664249678393   -9.05216494805618   -9.43611768955513
C         -13.82789738412645   -8.61272037012343   -8.98197060143109
C         -12.61210563625089   -5.42681344565821   -5.28471164650535
C         -13.38112423351289   -4.60314277697095   -4.41527170827127
C         -14.72943497168630   -4.51306290080632   -4.44148348704683
C         -15.43146560577608   -3.63713824749511   -3.54573581238297
N         -14.76212742518642   -2.91269420987084   -2.67061657794291
N         -15.33707372483632   -2.09002400596597   -1.81583851388818
C         -16.62295067280066   -1.90636573242398   -1.76237802324347
C         -17.47514572918821   -2.60648764153832   -2.65066945475987
C         -16.85598422993472   -3.51555977015435   -3.58041502225817
N         -17.81712725517895   -4.05165650558985   -4.30344047503049
O         -18.94803308179043   -3.51966119540357   -3.86001411202099
N         -18.77632353003752   -2.64891094102494   -2.86935187193488
H           5.00197053008603   -5.61498484531638   -4.79840436338486
H           3.70062715289133    4.51759705898334  -10.25958620982760
H           1.06104088483129    4.22964513664187   -9.76437532741924
H           0.95584535282673   -2.57261983534844   -6.01916673949650
H          -0.90277438213796   -0.35422372637024   -7.06039489743226
H          -3.15090263131188   -0.51952370535725   -6.69024112795420
H          -5.28738913944494    0.03667260099112   -6.71107232082378
H          -8.01271346955307   -1.30369329261982   -6.88002760557368
H          -6.64072428652905   -1.70724775793983   -7.92872718649364
H          -7.86617402334018    0.93750117276338   -7.75679606051704
H          -7.78722944971649   -0.05983747885355   -9.05739128826113
H          -7.65148013229533   -0.02798693710599   -4.78402219700702
H          -6.98013981461836    1.36804393470956   -5.65282598526479
H          -4.92850888485017    0.93069439238820   -4.35914071741165
H          -6.19961425885989    1.19608818477008   -3.36018316759507
H          -8.25158664224294   -2.17220796991106   -4.77280048181146
H          -8.52168346907416   -3.68980925014534   -2.81824849577109
H          -7.22660508199028   -5.84531844386001   -2.67693851084378
H          -4.86058261899241   -5.55687342146075   -3.28926119072295
H          -2.53616881475962   -4.79911233477130   -4.19592359776546
H          -0.62429265752905   -3.63749065595076   -5.18112474307835
H          -8.49687181073002   -5.35365160361411   -5.40295184864984
H         -10.71728589721471   -4.23415931325571   -3.61810072426527
H         -12.34407100936602   -9.75330425509613  -10.23192678320343
H         -14.76988654833327   -8.93241992765279   -9.38132065586216
H         -12.85567197706344   -3.99575513183337   -3.69091102312662
H         -15.32982832637860   -5.08628523199650   -5.13436098269022
H         -16.99807123597678   -1.21217771716274   -1.02744015267271
