96
 SCF done       -185.351374488481          0.000453690981
C           1.85119190765493   -0.59461429273641   -4.22385311683516
C           1.46343659251552   -1.79142872383735   -4.82664516573215
N           1.14509525403943   -2.77210726369584   -5.33039221398527
C           1.55662447066069    0.68299009430737   -4.65840838568863
F           0.82308077746843    0.93346056104216   -5.74010917747212
C           2.10608908012225    1.68759286273880   -3.84522098181193
F           1.94105116150679    2.98771474193811   -4.07797468020047
C           2.83638688202107    1.18224224563808   -2.78750216176671
S           2.82193360122428   -0.57108664466002   -2.79375350829747
C           3.51295573833153    1.87022682146238   -1.79664209372251
C           4.16288713614856    2.32741268010481   -0.87485330780773
C           4.89332454026281    2.87698375051291    0.17052359958128
N           4.90018037119653    4.17631140909852    0.40592477400379
C           5.68965491313963    4.34965232352610    1.48995119865736
C           6.21049814759261    3.06836138112788    1.97439221142067
C           7.07552272109831    3.26405264419610    3.14834879224745
O           7.66549851599797    2.42957103106418    3.79799177667254
C           7.03990012395016    4.73118168007863    3.32525951305521
C           6.18022570563772    5.35141721790695    2.29209566117882
N           6.14904183792417    6.69850866060367    2.44186520410601
C           6.91692225426191    6.94634066172297    3.47317352956947
C           7.50799075747003    5.76256687987037    4.07140339562613
C           5.72047607808157    2.09922519218862    1.13618830436717
C           5.97851058014924    0.70086862035036    1.19346641007924
C           5.54879048774868   -0.19714825428770    0.28049557792868
C           5.80390546868003   -1.61063316579687    0.25206596483009
C           5.34606748596693   -2.31373003662421   -0.84591891749669
C           5.57976389726298   -3.69338086490667   -0.97390104248168
C           5.26191639268732   -4.60725098914167   -1.97840989281914
C           4.53653077926197   -4.42106712502840   -3.27317460091763
C           3.00966311455690   -4.33519855864854   -3.08201346624711
N           2.58592039439409   -3.12510849339800   -2.38696435411592
C           5.06721672325612   -3.24539938210549   -4.10888047463235
N           6.46887381282883   -3.47171128750713   -4.41034974807291
C           5.79801443712750   -5.87937778990482   -1.55733671156284
C           5.82217927254481   -7.07838348966091   -2.17047778274106
C           6.47176669761200   -8.26155797144830   -1.54404193270241
C           7.11147633958804   -8.00005398166261   -0.21696798461067
C           7.07399221434100   -6.79445925583112    0.38550693290567
C           6.44414808971273   -5.70089146369145   -0.24817010570189
C           6.30641083012786   -4.36901558924214    0.09413609187189
C           6.74548102406898   -3.63397402123145    1.21959603532740
C           6.50728475052130   -2.29915404642924    1.29210598245602
C           5.43859591646552   -9.32884807286854   -1.31152834485290
C           5.51996000186581  -10.57270636535709   -1.80638914344515
C           4.54087863054739  -11.57252928163578   -1.51909303780115
N           3.52355637143235  -11.34232204240246   -0.70258367778443
C           2.82296638658515  -12.49106540596596   -0.65014315884518
C           3.43188154950995  -13.52864413069103   -1.49717523782009
C           2.65760530023658  -14.77825747577066   -1.41949221427173
O           2.86887211511387  -15.83074747946784   -1.98478479095639
C           1.57305300077877  -14.42819538430679   -0.48753123493061
C           1.71014151339262  -13.02446475897226   -0.04392843092586
N           0.71733560290650  -12.69608730209833    0.81650278739048
C          -0.00884361697961  -13.78279908065367    0.93213801617606
C           0.46876154841425  -14.90128221708281    0.14617233015169
C           4.53960843459703  -12.95044870235126   -2.06648961226741
C           5.49830536786010  -13.48425282951326   -2.97337359026298
C           5.45494621093400  -14.75449935164914   -3.44196130089556
C           6.40551308002074  -15.24229555413416   -4.32658458082645
C           7.24217877131562  -15.66245019350336   -5.10144994605879
C           8.20454186186973  -16.12810308642601   -5.98075802243758
C           8.31448985903586  -17.39380538520464   -6.52654522048496
C           9.41487625090800  -17.53765865905872   -7.38790332361943
C          10.16149161042734  -16.38391548166320   -7.51295497703867
S           9.49209214650945  -15.10330813920423   -6.55057876558667
C          11.30886287564415  -16.19229362860813   -8.28547994971792
N          12.25241181677360  -16.02754803346552   -8.91637077968677
F           9.70837341523098  -18.67105975015470   -8.01950695130009
F           7.45852383365074  -18.38024727461805   -6.25937952665779
H           7.06542050493623    7.95771293686717    3.80977056381360
H           8.16522781278785    5.75474839143252    4.91837772418289
H           6.58840437538558    0.39927715790260    2.03458145490058
H           4.96091069821637    0.16673797093359   -0.55104477427839
H           4.80928140330050   -1.78331082487248   -1.61541787920608
H           4.71535273135158   -5.31803675888614   -3.87355437282086
H           2.68399354835029   -5.24409189299017   -2.55295547981798
H           2.53727040485402   -4.32715163118410   -4.06730663392571
H           2.94988951144220   -3.12868640165421   -1.43826632680003
H           1.57286323722799   -3.11963327117373   -2.32647915831091
H           4.87239151777293   -2.29676734344793   -3.59021667100791
H           4.51982491780487   -3.22500538807397   -5.05531071606548
H           7.01935188054239   -3.45302364461697   -3.55783825734406
H           6.82358032903372   -2.75397340504164   -5.03133155127590
H           5.36446669612170   -7.24276412795998   -3.13582477918139
H           7.22344004859079   -8.65411694492328   -2.24332959658005
H           7.58714256845494   -8.84736719605735    0.25154800782023
H           7.54482169974574   -6.64555350017033    1.34610660255963
H           7.27319558330895   -4.14494422555590    2.01101340719396
H           6.84622758671177   -1.73765826264600    2.14778085998696
H           4.60800607858957   -9.06763020524994   -0.67263017968431
H           6.34446537989384  -10.85340073097304   -2.44768167357515
H          -0.87532980564581  -13.79066663631496    1.57043115324112
H           0.01778936592872  -15.87289934122470    0.10441104023887
H           6.29798524530831  -12.83268252170654   -3.30069620365289
H           4.66947546441697  -15.43622590336671   -3.13787302405599
