100
 SCF done       -178.254000950169          0.000754794439
C           6.54878955423879   -4.82421853161960    1.38260406182104
C           6.18187118069253   -5.22597211666003    0.12063069664322
N           7.16418375662916   -5.73350018836671   -0.78181880960283
O           8.31754666013459   -5.71417600285298   -0.39773800204836
O           6.80553057952985   -6.15028446176833   -1.86121572902548
C           4.79036525317776   -5.09124495048582   -0.14784970108593
C           4.15937372204389   -5.45420620239978   -1.43686719758085
C           4.12703359712303   -4.54994567472725    0.94347443295728
S           5.23116119590140   -4.24984940153902    2.27035693048689
C           2.72588264113355   -4.29619065312482    1.06556824436633
N           1.87525620180991   -4.90213248119878    0.25170441910127
C           0.64265178977810   -4.50622620741677    0.63143982434857
C           0.70602831681832   -3.58597152053592    1.76623724003336
C          -0.64888146420996   -3.16419486099573    2.15303716168246
O          -0.98720761488447   -2.41190408609291    3.04424337114314
C          -1.50276533990743   -3.88172427533250    1.18748103517234
C          -0.67296968913355   -4.68981449064266    0.27552016804470
N          -1.44491918118326   -5.34014890326464   -0.62836699894183
C          -2.67600275738917   -4.99154220834777   -0.33867568833651
C          -2.78395316468211   -4.07869559271404    0.78056437506405
C           2.04369061693913   -3.41892638244781    2.05215498060241
C           2.67255932870458   -2.57583147692482    3.00748595067576
C           1.98867655817616   -1.86119654381408    3.93271999398734
C           2.55898201744553   -0.98468804490916    4.91581452094210
C           1.70121865206031   -0.21885503473095    5.68812127612345
C           2.21101053268237    0.66752525041738    6.64837778026617
C           1.56777090571243    1.54842918241186    7.51965874567840
C           0.10031341482790    1.75255149633682    7.64824906939640
C          -0.39264838494250    1.29361766079568    9.03749986221620
N          -1.81641424931868    1.05649383423884    8.98983274779229
C          -0.28877422777866    3.21458319811661    7.36154951622190
N          -1.72803691914777    3.33756261281562    7.18182363134148
C           2.60046738456876    2.20915955287645    8.27964340340628
C           2.54277939944612    3.12685666196109    9.26598094484410
C           3.78273408448443    3.67937873292132    9.88624662824381
C           5.05530708581207    3.06692419041175    9.41056911925109
C           5.09595696655286    2.14199327877740    8.43104213927764
C           3.90028155701809    1.68819082268183    7.82955527077939
C           3.64947469547879    0.75779872721402    6.83643094327128
C           4.50484635728480   -0.04500506280443    6.05098821361852
C           3.97306104145271   -0.88211985699622    5.12278580502967
C           3.78373851570443    5.16043701267827    9.59185939606020
C           3.12164256487246    6.06061106990851   10.32772416893380
C           3.13536384865681    7.46131583271147   10.02576307747418
N           4.14660755422984    8.01996297762500    9.37701908274345
C           3.91019864023685    9.34583461176113    9.38453207052659
C           2.66205067740310    9.65681782641228   10.08922073892333
C           2.40735099970246   11.10846017698748   10.09820150716350
O           1.46894441884604   11.70287868865833   10.58161357113466
C           3.57745363100020   11.63573858086049    9.37464006438731
C           4.46605274208721   10.53155101275286    8.95409403765455
N           5.53355194027519   11.00834140138904    8.27598571406203
C           5.36673929140125   12.31234216794376    8.24630047454318
C           4.16605098480224   12.76921610403926    8.90732539967959
C           2.12965051989167    8.45023958363757   10.47274943326213
C           0.86799648522590    8.21667654757483   11.08897035487106
C           0.18632251478096    7.05119281852925   10.99958821298803
C          -1.08401597448283    6.81650007485251   11.59045011968886
C          -1.82148216060036    5.62542596594642   11.63898063194405
N          -1.36303945279137    4.39717606619749   11.13888422068127
O          -0.21127793436840    4.31717514862291   10.71829457434377
O          -2.11712602213913    3.44107491366833   11.14491943479655
C          -3.08875778516787    5.76918271192915   12.29167250328583
C          -4.09345629144103    4.69215155034017   12.50186674076899
C          -3.27215206531034    7.04390095475141   12.72262296084173
S          -1.96052132995765    8.09415116599747   12.35897909241123
H           7.53806009757674   -4.84973099236727    1.79663799586944
H           4.70133228989782   -4.99848787625560   -2.26425465115626
H           3.11506756089159   -5.15957418634827   -1.44454679687326
H           4.21743863336693   -6.53278577280705   -1.58031364534478
H          -3.49919483058047   -5.37855481459332   -0.91371348053270
H          -3.69729601589636   -3.67374191925841    1.16959697420778
H           3.74774998282041   -2.49705272542986    2.95259939965136
H           0.90872002912185   -1.93118930206481    3.94042923661275
H           0.63490214687757   -0.30519698648514    5.53859075273032
H          -0.40839468584337    1.12084218546060    6.91315231788711
H          -0.09842104967042    2.04693229512574    9.78034501138791
H           0.10354706543152    0.35208786388360    9.30151677120976
H          -2.28466414758325    1.90146185350277    8.67412997674414
H          -2.17288191958074    0.80420326962117    9.90346424231750
H           0.28510442846967    3.56058494664634    6.48377625117177
H          -0.01192510536217    3.84612593947901    8.20860630669233
H          -2.03173344559811    2.77078333447049    6.39583085703866
H          -1.97552220454646    4.30119803747545    6.98258673576979
H           1.61344055244392    3.52268263754008    9.64484800454586
H           3.69670809768249    3.55771423707245   10.97521485166622
H           5.95856032441949    3.43432400740215    9.87268154795443
H           6.03784640948181    1.72798728207277    8.10203734671094
H           5.57355361095489    0.01417092863171    6.19554537957334
H           4.62968013492729   -1.50057175133112    4.53119565421633
H           4.31827438701363    5.47986520096406    8.70994600974622
H           2.54947878182212    5.75053232363645   11.19191929710393
H           6.09270937285257   12.93989830634133    7.75907609912942
H           3.84806028762316   13.78965244811429    8.99003171278666
H           0.43153128754092    9.06412020402489   11.60438918758844
H           0.60060577598352    6.23334076844095   10.43105510977231
H          -4.43804893776067    4.30164756848517   11.54601887511067
H          -4.94156226914880    5.08043687167251   13.05971323784136
H          -3.65395874636310    3.85890939020069   13.04736067628358
H          -4.12219626696699    7.43400947160912   13.24606479407205
