110
 SCF done       -218.240719899605          0.005914085875
C           8.95558097242832   -3.51979559972241    3.33581011501295
C           9.83031060712300   -4.15302539936788    2.46564095087820
C           9.36343236159027   -4.84301646834659    1.35400585957783
C           8.00666844791619   -4.91903814209262    1.07557728001447
C           7.12118481203248   -4.29607237737326    1.93972590029692
C           7.59624169734204   -3.59572880981814    3.07541794588004
C           6.45610209656015   -3.06222754685098    3.80298812023319
C           6.45885545786138   -2.09489640783473    4.76370303622560
C           7.63807619322583   -1.49907309018655    5.26494274490286
N           8.56931077485165   -0.99464121558315    5.70237571338519
C           5.29322016097479   -1.51073748722568    5.30573991006872
N           4.38827378741295   -0.97372087901880    5.76472325094056
C           5.27393684708130   -3.71165861190945    3.23282731236720
C           5.67027340406390   -4.20695897609468    1.91235354659085
C           4.85931655864393   -4.34878197185024    0.82866587795161
C           3.48427184831996   -4.03169822435039    0.84061518521056
N           2.37544506390143   -3.74390186996518    0.78842437289812
C           5.32481652159874   -4.73033757103752   -0.44991455824637
N           5.66496105701551   -5.02460321669384   -1.50464596408209
C           4.12997090087922   -3.95418782649759    3.91093504544685
C           3.06619615982830   -4.81854238776224    3.49164934859398
N           3.27129756779620   -5.94371613244332    2.83599687191364
C           2.05718416047263   -6.53459485123972    2.72856962874411
C           1.01403719279665   -5.72702658831986    3.37624522264998
C          -0.30436291931525   -6.37139829531498    3.24136936041678
O          -1.38034560829438   -5.97780085039765    3.62381739091236
C           0.02479133159450   -7.60950918687987    2.50072003941790
C           1.47710100051204   -7.65814045632057    2.20307473530698
N           1.78618979098405   -8.78657018346700    1.51555818730989
C           0.65294569331791   -9.42365679479089    1.37652857628951
C          -0.48970453420496   -8.74209861497392    1.96552080084907
C           1.64343414862174   -4.61246437120852    3.86196410225971
C           1.13990356690755   -3.48176030309892    4.56308215041540
C           1.78936315044103   -2.29633998948782    4.52705610555620
C           1.50813620342377   -1.07271282595482    5.19330475321301
S           1.90803258398326    0.31348675734173    4.26849274027173
C           1.25813530048674    1.43515131899184    5.41093458951927
C           0.76306526610747    0.73415764722249    6.53119886052994
C           0.97735807790166   -0.68670828631948    6.43948634143506
C           0.74564660253432   -1.48420855425376    7.59008303326946
C           1.21925734264240   -2.90147729307577    7.74851778328170
F           2.35187109429016   -3.18462344281598    7.08430667019358
F           1.48551165026980   -3.18462480884095    9.03500106961028
F           0.31108873120843   -3.82118627573891    7.36697083065534
C           0.14074566244339   -0.91727795099720    8.68710764509410
C          -0.21256550643362    0.43065692037241    8.71985277863675
C           0.12747414905176    1.27719075294949    7.68485298383737
O          -0.10114709255889    2.59995083195212    7.68995783369476
C          -0.69975267186201    3.19839926407287    8.82304920162917
C           1.41665958104733    2.76237578910481    4.95012190271971
C           1.01015519080591    3.97651680668433    5.40342203769207
C           1.33816904142679    5.16714975875381    4.71024186403522
N           1.38206595492628    6.32416589379352    5.36276789032781
C           1.84295062054372    7.23083238594184    4.49055722057238
C           2.08464272152407    6.62822999143359    3.16821794244811
C           2.55455911529302    7.65342324169203    2.21512463208567
O           2.83638963467526    7.51955250575435    1.04301499774278
C           2.58719553268429    8.86830212207155    3.03929155460485
C           2.15158514699222    8.57078271582787    4.41925714811333
N           2.16758163266684    9.69069843019628    5.17679493372352
C           2.57190923470664   10.64489508497297    4.37037860197012
C           2.84002638827468   10.20318533341075    3.01956945993511
C           1.72362937376163    5.30876612546142    3.27696865596753
C           1.57863730589224    4.33488547572587    2.24060042163930
C           2.04966440253491    4.52569539011932    0.98387962099697
C           1.69851581492336    3.72932828292639   -0.14094497985521
C           1.45858930336482    2.39132767851938   -0.25202226918530
C           0.63744856064803    1.80795151004842   -1.32032475550464
C           0.22116722337800    2.40954611125954   -2.47474298646448
C           0.52035292193320    3.72384251070593   -2.89788432661982
N           0.70403796559497    4.77341717922901   -3.32588667248809
C          -0.56584431277613    1.76484342730039   -3.45564491561047
N          -1.20147498253327    1.30579734723850   -4.29304945483475
C           0.31446852834649    0.44942827621213   -0.90994632887825
C           1.05958008142314    0.13888078689166    0.24902161311585
C           0.89560741353510   -1.07546646797277    0.89334901861792
C          -0.00464738763162   -1.98883964168721    0.36728561879801
C          -0.71657276624011   -1.69715169818699   -0.78777362051885
C          -0.56983923662866   -0.47952312215100   -1.43622685943768
C           1.89218228870646    1.28031935250415    0.58772208542032
C           3.03700304313939    1.20602304525931    1.33964874817875
C           3.86608860497567    2.30218901828150    1.65042183781394
N           4.56565342326046    3.15681493507075    1.95780778505622
C           3.58414658667073   -0.01302772171404    1.79185102404084
N           4.11387833511897   -0.97442208220338    2.13681102693112
H           9.33054233204975   -2.99538599723827    4.20013487689552
H          10.89096178893302   -4.11228341949759    2.66081354010990
H          10.06664225415957   -5.33262139646838    0.69771130110507
H           7.65402912907595   -5.46553300241837    0.21555092737682
H           4.00905175994174   -3.53202400243383    4.90156820131188
H           0.62011693558229  -10.36926934748439    0.86364647968910
H          -1.49944717582094   -9.10090450280835    1.95613266391789
H           0.20355823203629   -3.61033044429403    5.08526403877332
H           2.59500078113497   -2.19718309247739    3.80512388467486
H          -0.05215309699279   -1.52087515946922    9.56031061057465
H          -0.70968334074578    0.80605322875729    9.59797704677050
H          -0.73883771843624    4.26416558309339    8.60448912556878
H          -0.10003480300430    3.03603359569946    9.72172542987546
H          -1.71400057957445    2.82345582412978    8.98121466339333
H           2.03244536358017    2.78523298517082    4.05778925513080
H           0.50049331822452    4.09728725616862    6.34168248739542
H           2.67986146615295   11.65244077089497    4.73267721022125
H           3.17283195782769   10.82558686171050    2.21142236609032
H           0.95528028259620    3.47327568357986    2.44889695652166
H           2.58042669711678    5.44383825220701    0.75970832304953
H           1.50546390016161    4.32632179034448   -1.02495123783330
H           1.43930778722896   -1.30842410477145    1.79416758142828
H          -0.14404358469194   -2.93668280549997    0.86148027680689
H          -1.40593613612754   -2.42519967497276   -1.18678689730598
H          -1.14446750474113   -0.26761401217274   -2.32254087063425
