110
 SCF done       -195.083687163700          0.000848182644
C          -5.01870596168021   -5.94355667897460   11.16223613637980
C          -3.87603640750800   -6.65212665647019   11.50628372878023
C          -2.84258444938511   -6.83043093457045   10.59871767561810
C          -2.91855107982061   -6.29843724147534    9.31962461977961
C          -4.05677110965186   -5.59686474831963    8.96356288785718
C          -5.11459982944336   -5.41879983623181    9.88405558724670
C          -6.17868981505883   -4.65684964639049    9.23763930121125
C          -7.32119923111358   -4.19565139390948    9.84387434559552
C          -7.63943784303588   -4.40413779207497   11.20068924542143
N          -7.96257958509249   -4.53773765325962   12.29460823105254
C          -8.30615564919303   -3.41392077729345    9.21017591970363
N          -9.13573533603510   -2.76823181757507    8.74492897627231
C          -5.79050788633089   -4.49559775344268    7.84936120459888
C          -4.40087210482849   -4.89464677389061    7.73763552810887
C          -3.50959597087799   -4.43326586934144    6.79852512054930
C          -3.83985558344479   -3.40441752105319    5.89225363811615
N          -4.07636268081582   -2.51459472131635    5.20550108639006
C          -2.17660649658115   -4.86332727194624    6.68881120840217
N          -1.09398483044241   -5.21086202418938    6.52082015095097
C          -6.65079613873373   -4.16099448235676    6.82710402990023
C          -6.50750595143644   -4.42193893651764    5.46120402338373
C          -7.27306268304872   -3.89960367696414    4.43057319239733
C          -6.90564819053760   -4.33414208323150    3.13907861958939
O          -7.66477675079654   -3.70603443800645    2.19075550383946
C          -8.50268168476693   -2.79346628845133    2.87870756669731
N          -8.31094837950054   -3.03111284532184    4.29994991904668
C          -5.86776594184600   -5.22346314831285    3.09379066610416
S          -5.36730054487324   -5.56974279715929    4.74780899148544
C          -5.12524545075055   -5.75581212457967    1.99172487727213
C          -3.95628017855018   -6.43974541416080    2.23556093151951
C          -3.13215698663146   -6.83791840719145    1.17060675651989
C          -1.87812489591087   -7.43237195991984    1.15370630052405
C          -1.03298942504740   -7.87598490128833    2.29928923545070
C          -0.98635503683761   -6.85318937200128    3.45140892391865
N           0.31333049823567   -6.89234812157829    4.09523151470094
C          -1.51326585535165   -9.25101790673338    2.80557587618903
N          -1.29523921559707  -10.25520423837787    1.77909817938906
C          -1.50825879951893   -7.56289713572864   -0.23669219059785
C          -0.39731064168388   -8.06615764578576   -0.80459505510637
C          -0.21228711012947   -8.05760545303231   -2.28491802110541
C          -1.37647247357225   -7.52681388586707   -3.05669230593198
C          -2.47915790036806   -7.02691441516211   -2.46997192450472
C          -2.59604778363186   -7.01470158884698   -1.05841615196183
C          -3.57532792072230   -6.57034082980102   -0.19482250398278
C          -4.81411465695506   -5.91745488525236   -0.41092875217364
C          -5.55837050826762   -5.50904082869256    0.64653381647918
C           0.24347718621062   -9.42253911087744   -2.72591139839306
C          -0.49042788969133  -10.27429643678825   -3.44618959179665
C          -0.02444530341989  -11.55695668666709   -3.87193874362393
C          -0.66683364965302  -12.48080406654059   -4.65633333757930
C           0.09609157442396  -13.62406322741069   -4.95805800962956
O          -0.60361763247534  -14.49187161578940   -5.72315698075963
C          -1.86666720024341  -13.88205546692785   -5.97919452598374
N          -1.92808132507828  -12.64163574428159   -5.21645107095589
C           1.37160016414900  -13.63500879533832   -4.42893936290977
S           1.57251075987832  -12.16361149583719   -3.47726362071546
C           2.42375030713837  -14.56554894178573   -4.47088224624099
C           2.59235867995639  -15.63803598808601   -5.30800874760806
C           3.46599816071924  -16.76927053809543   -5.00670089140672
C           4.48400365092876  -16.81706238134380   -4.09326529457360
C           4.91922781938649  -15.74463861642203   -3.28522345727043
N           5.33922413424326  -14.92355792699145   -2.60116105014367
C           5.28391180885033  -17.95653896245932   -3.85941013794698
N           5.97171963452019  -18.84253313483017   -3.61579038247487
C           3.05181387373511  -17.86175620742247   -5.87810347614637
C           2.07088206906944  -17.38253366044058   -6.77490552707868
C           1.49577069199505  -18.22689354862984   -7.70926499501407
C           1.90267714773519  -19.55248971719897   -7.74384462650688
C           2.87084062031653  -20.02371840316309   -6.86919503933110
C           3.45555584917666  -19.18667682278763   -5.93039166363611
C           1.87823349295737  -15.96105557849294   -6.52805251286221
C           1.33217236383909  -15.07212335619642   -7.41800641173871
C           0.63364944591533  -15.44252512740081   -8.58427512070192
N           0.01542902883066  -15.66148764611851   -9.52662553994786
C           1.45216286913758  -13.67302998803520   -7.32229598612933
N           1.51814310073297  -12.52672384982171   -7.29985076802607
H          -5.80990410752643   -5.81397111441167   11.88232821934715
H          -3.79410114036172   -7.07074329598038   12.49780191762001
H          -1.96603296234518   -7.38928646110950   10.88953781679836
H          -2.11131492462550   -6.44112069246397    8.61900258532008
H          -7.59756242685248   -3.71027625462530    7.09460502495566
H          -9.54675823847434   -2.98319602717909    2.58929306125393
H          -8.23202051723639   -1.76330008185380    2.59067250438136
H          -8.54075411163178   -2.32400260189993    4.97607360334771
H          -3.65840236829663   -6.63183974886680    3.25437889259937
H          -0.00602753871135   -8.00224730475794    1.94646135047920
H          -1.81414592002676   -7.04692419443090    4.15382222554654
H          -1.11769325624400   -5.84595779017134    3.04684330912040
H           0.45782624833546   -7.79310084159109    4.54069348815765
H           0.35127068272207   -6.18613655811377    4.82371188303832
H          -2.56807396131366   -9.16389182861440    3.11881296359495
H          -0.92052891282777   -9.54015015973532    3.67764096184838
H          -1.87369300036174  -10.05660070485398    0.96899863580004
H          -1.54319605018764  -11.17599507292404    2.12316633061707
H           0.39962900117184   -8.49636955261683   -0.21515780281463
H           0.63967051348319   -7.38051368629703   -2.47575890459411
H          -1.26939263211680   -7.53443094299483   -4.13103319545269
H          -3.28911341001347   -6.63050141468097   -3.06540893150869
H          -5.14545203339806   -5.73234268740695   -1.42222156002534
H          -6.49023718421300   -4.98457944957473    0.50528175746262
H           1.23399103153213   -9.71632859743835   -2.40511102686879
H          -1.49288977805643  -10.01446237466797   -3.75936417450042
H          -2.65162833110357  -14.57473162783081   -5.64412996260161
H          -1.96710950966087  -13.72529077659137   -7.06443080338752
H          -2.34663288030826  -11.84970047619463   -5.68063176330447
H           3.15666325682570  -14.42730088486768   -3.68686717052175
H           0.73918395296152  -17.87271314120443   -8.39054055145634
H           1.45816556428820  -20.22430493435459   -8.46220768634272
H           3.17479845280067  -21.05827222041949   -6.91547677878253
H           4.20378751537642  -19.57189853529157   -5.25765231304814
