103
 SCF done       -198.089327683849          0.000724835505
C          -7.51781232944536   -3.58911873392849    6.48683879772034
C          -6.69906332865931   -2.80025702653031    7.28249285550313
C          -5.39270840444705   -2.52123010009130    6.91014005225503
C          -4.86772927890673   -3.01799619380064    5.72637214926490
C          -5.67320727586104   -3.81302055997532    4.92909780043978
C          -7.00274485799579   -4.10324350745307    5.30801517771846
C          -7.59956671147013   -4.97268067334124    4.30039632635864
C          -8.91062700404298   -5.37266137000628    4.26983937188032
C          -9.88182985170178   -4.96611534453910    5.20931546441974
N         -10.72550572523557   -4.67354279500348    5.93073049998460
C          -9.50040872490917   -6.20440441219519    3.29572453455495
N         -10.05497839942974   -6.87391413257506    2.54488303345925
C          -6.53950001480418   -5.32994291370980    3.36835954047643
C          -5.41066018969390   -4.45817906502933    3.65081885112393
C          -4.42279032838717   -4.08524172709101    2.77175987717363
C          -4.33465310467420   -4.53040269740275    1.43805742658434
N          -4.23560452125231   -4.82613802646016    0.33280497927755
C          -3.41528046676275   -3.14602729737688    3.06760251994683
N          -2.55095831808415   -2.41266430550831    3.25224675118401
C          -6.63436776515471   -6.34866188852836    2.44783923005607
C          -5.58367060968609   -7.06681668483528    1.83589441441259
C          -4.31573204452412   -7.19774799658195    2.38146124202151
C          -3.27441261585599   -7.91042826133088    1.81707039900940
C          -3.48371729309329   -8.70307026051904    0.59855925913861
C          -4.64959063657212   -8.75430564960106   -0.08680426642297
S          -6.05440648063672   -7.88898537424475    0.35485755671291
C          -2.26003601869926   -9.38531859760287    0.37056139645193
C          -1.33785849143554   -9.04513358579625    1.36527412732348
C          -0.09680986454108   -9.69648146755773    1.18351005882815
C          -0.11150155692986  -10.49727474883909    0.08709004941690
S          -1.61737209906197  -10.49258142817189   -0.77106159516586
C          -1.93689412841664   -8.10153778064072    2.26542355127610
C          -1.22464883373006   -7.50174274342653    3.32183162267077
C          -1.58704941449716   -6.38575281822474    4.02158008420739
C          -0.87860045652688   -5.80422169507111    5.08463609322471
S          -1.51091352662330   -4.34732808287896    5.81918294021749
C          -0.22139534751514   -4.19441945174892    6.97749925158590
C           0.69722200736361   -5.24556720788051    6.78531324487310
C           0.30291795440525   -6.14216918432743    5.74186420091003
N           1.23468696765099   -7.12274847036841    5.64416348585384
C           2.19117784703722   -6.88925533996524    6.59607764850224
N           3.24926303392335   -7.78786721334801    6.77528267961571
O           3.30358100669075   -8.73913232279651    6.01123226505564
O           4.03071630960937   -7.57157600905745    7.68611140452939
C           1.91115562747820   -5.73726114900415    7.30533445597131
C          -0.25928189125083   -3.18848453778316    7.96201196164395
C           0.66819361898055   -3.13834314424388    8.99049711436804
C           0.61282441140677   -2.28168324004310   10.07220477344462
C          -0.32636226792612   -1.15896814094483   10.09517407639357
C          -1.30176012670101   -0.97978966550629    9.17511218170795
S          -1.59042162524238   -2.05211270477223    7.86677954050920
C           0.01302586353326   -0.40335011381267   11.25286080545578
C           1.04610644776893   -1.03768230115692   11.94578275839989
C           1.39692215832728   -0.34910818807194   13.12657322768471
C           0.64222112184500    0.76899939244205   13.29271365601227
S          -0.52392701242309    1.02500380176363   12.03911547176419
C           1.40934836453110   -2.24804331674167   11.25295536446132
C           2.23862822995725   -3.23899952036263   11.79314253468753
C           2.32654276277828   -4.53749866069913   11.34671500991552
C           3.07312743896654   -5.52497057614382   11.98388476119742
C           3.14153150240454   -6.86326675527413   11.64285505946631
C           4.17067993793904   -7.74644979469294   12.17148154572446
C           4.92825507393126   -7.55880477329339   13.29911114648829
C           4.82145100188401   -6.47795749383688   14.19888574665715
N           4.79013341658622   -5.64333972853275   14.98815984399580
C           5.90236006935626   -8.46965849767860   13.75962317479370
N           6.70666990941394   -9.15997591387796   14.20092058005112
C           4.22831928643640   -8.90775385343946   11.29703454510912
C           3.17182164849923   -8.81951870305375   10.36470865570402
C           2.99206240322080   -9.82007501942725    9.42386309115528
C           3.88475562718524  -10.88066768615771    9.39502165926227
C           4.93163884764159  -10.95571902951050   10.30028239563753
C           5.10852757009125   -9.97614751688349   11.26619088219271
C           2.41472066339424   -7.59953221304282   10.62659470932048
C           1.18392695260560   -7.33541124829408   10.06505956839767
C           0.61793997037891   -8.07727846468596    9.00980771915725
N           0.10351538519853   -8.55630135035874    8.09879846710153
C           0.24226667216595   -6.35002925691360   10.42247571665770
N          -0.62422824571167   -5.62037017375046   10.62319616399818
H          -8.52947343743552   -3.79557944391692    6.79422874996513
H          -7.08895574953878   -2.40184835353947    8.20661138074041
H          -4.77029217271142   -1.91172183750615    7.54712123224458
H          -3.85030068890364   -2.79483122094168    5.45122864333054
H          -7.62827302644688   -6.68595227580864    2.18574052628685
H          -4.17551542961982   -6.75026459738348    3.35461201006756
H          -4.76531072158700   -9.35066465720810   -0.97826104865773
H           0.76059135812296   -9.58840897085968    1.82248333386087
H           0.68543248314868  -11.10886930866572   -0.28835854836440
H          -0.27232360730701   -7.96198619830368    3.54634702604290
H          -2.47605161137418   -5.84670444659557    3.73388053675212
H           1.21112335870616   -7.96655156707206    5.09374419891937
H           2.54867882919419   -5.34298266588369    8.07034388647964
H           1.48387394909354   -3.83264222759937    8.91570210247737
H          -1.99755497574131   -0.15698792916746    9.22120915101377
H           2.16396885462317   -0.65398936089725   13.81461196220736
H           0.69275922383048    1.48151313870974   14.09261187865766
H           2.76909402702017   -2.98024239767326   12.70159410209330
H           1.75246528582555   -4.82441162142080   10.48740808502275
H           3.71425104153927   -5.19319281516153   12.78886003955794
H           2.18404785371781   -9.78936525457924    8.71188390478391
H           3.76225664085410  -11.65168872939325    8.64992823062600
H           5.61939066873239  -11.78633936968822   10.25640046794662
H           5.92425792393040  -10.05037320765806   11.96624343076839
