116
 SCF done       -204.502089194019          0.000644700930
C          -7.56431929947578   -5.97665207795971    4.22426342973418
C          -6.68804331817668   -7.00107232682128    4.55134297389473
C          -6.92591490778885   -8.30589690888592    4.14399436997893
C          -8.05398644349967   -8.62650531033431    3.40364361659471
C          -8.93478086005106   -7.61162302675899    3.07101007634611
C          -8.69051881744153   -6.27975631935268    3.47565001407396
C          -9.76199746677908   -5.42828674909623    2.97102815058719
C          -9.93398289695605   -4.09964745642970    3.25834538060875
C          -9.08126148956052   -3.35532010977091    4.10024777631968
N          -8.42876527606456   -2.69013280958339    4.77083178213556
C         -10.99843918752856   -3.29724675875216    2.79803082757346
N         -11.83372569876314   -2.58467285283435    2.46047071028796
C         -10.58635521483848   -6.26236774185058    2.10737067138283
C         -10.19977159737781   -7.64439371438491    2.35457986010359
C         -11.01193337720444   -8.73993948008753    2.22381837245161
C         -12.36936072417883   -8.65696527910898    1.84799849183353
N         -13.49053091902348   -8.61797383480967    1.60514014810937
C         -10.61811132784760  -10.05370452399074    2.54517749751568
N         -10.34162281678468  -11.14471058984120    2.77151959845555
C         -11.45910857626848   -5.78425354412907    1.16566778894287
C         -11.95042410967693   -6.42853609187006    0.01340122234779
S         -11.20708434887296   -7.82283197413307   -0.73441746679450
C         -12.36423865711498   -7.81395241597943   -2.02497249564764
C         -13.26200673225255   -6.76646891112274   -1.87868731198782
C         -13.01622969067411   -5.98692174195228   -0.76031766050504
C         -12.33049237781090   -8.80349425286175   -3.03631421848795
C         -13.20763687860067   -8.98022759853653   -4.09178014689854
C         -12.90902772168893  -10.08582628604363   -4.88045207273892
C         -11.79125988175664  -10.78118624681787   -4.45421609935050
S         -11.10396855207982  -10.03924237555936   -3.04311537864364
C         -11.22361566061732  -11.95621221530549   -5.01369402781749
S          -9.71544480240188  -12.58939852045366   -4.42091845732477
C          -9.78161359111036  -13.92676935440990   -5.53225240390423
C         -10.92268616652624  -13.85627703403223   -6.30585595643875
C         -11.72646253963200  -12.75327057788793   -6.02293665555718
C          -8.76347517196179  -14.92090923432856   -5.57559839874565
C          -7.62338291901669  -14.86667106258690   -4.85656234720184
C          -6.60861639258140  -15.87437598487027   -4.89573123002818
C          -5.42688410421855  -15.79247102670233   -4.26410189758416
C          -5.00927452138668  -14.60910974185582   -3.44306634090812
C          -4.39407913088487  -16.89520241542553   -4.33067308310605
N          -4.75373615080491  -18.05356954055275   -5.09856829621972
C          -5.48957319977297  -19.07075739871186   -4.58806534005838
C          -5.99823351156221  -20.08972926131681   -5.31454048223871
C          -6.69239784059164  -21.20049257566393   -4.75767958163840
S          -7.12878435089068  -22.53859812417294   -5.77908902013074
C          -7.83498586457622  -23.40528467771788   -4.44021188190518
C          -7.73243077833965  -22.66073909149525   -3.28061230912502
C          -7.09659025996368  -21.43525905183058   -3.45679529918179
C          -8.38863730392709  -24.69916963139423   -4.59800807498426
C          -8.97809427898255  -25.48975627044025   -3.62436856985009
C          -9.39459442894318  -26.72850516862515   -4.09273359615223
C          -9.13797179531404  -26.92749178107476   -5.43914039677908
S          -8.36545400697254  -25.52349075279566   -6.12715743049865
C          -9.41012790906657  -28.07959183272147   -6.21170130244426
S          -9.01745969392039  -28.17065601525132   -7.89668019033527
C          -9.61769109861431  -29.80899453382169   -8.00591225130042
C         -10.09557583918737  -30.22644776673385   -6.76718613234480
C          -9.98314080598134  -29.27076066027159   -5.77521607231789
C          -9.54365644054715  -30.50460374364865   -9.22252583115225
C          -9.95540722213936  -31.79682826763730   -9.41474451459301
C          -9.83641826457462  -32.43337669974474  -10.65557309690930
C         -10.11313577844170  -33.75527039893757  -10.93136057352992
C         -10.39003648491424  -34.28054139343007  -12.25655948159751
C         -10.12367043908881  -33.68539443100305  -13.46416265628783
C          -9.48005984773448  -32.44436516209342  -13.64439788436356
N          -8.95846443535821  -31.44726443761384  -13.87696396993656
C         -10.42843728898343  -34.26026102193377  -14.71481022253834
N         -10.64735083021717  -34.66443126627315  -15.76738974005208
C         -11.02461728097750  -35.58107173261419  -12.07278506125687
C         -11.02370573251591  -35.89671778768998  -10.69575159540240
C         -11.59150431516893  -37.07504932898150  -10.24220807545030
C         -12.15993888874269  -37.93717927460179  -11.16862882128371
C         -12.15396680280862  -37.63334881383005  -12.52154589605825
C         -11.58698732313959  -36.45601857189218  -12.98778681721236
C         -10.33381679488314  -34.82983961946939   -9.98242533098049
C          -9.79735015845308  -34.94108183289229   -8.72315254735661
C         -10.04127147503179  -36.02548787620237   -7.85679998990309
N         -10.22108436111431  -36.86152519210663   -7.09001081411298
C          -8.84375117601475  -34.05987466054032   -8.17242637093088
N          -8.02497051550534  -33.41985656568824   -7.68359491056017
H          -7.36033585629525   -4.96927655398706    4.54763022242656
H          -5.80572451122412   -6.77499004952682    5.13045794776675
H          -6.22497239105663   -9.08387124409297    4.40565555408087
H          -8.22896779020032   -9.64192665850575    3.08650019120736
H         -11.76724316282294   -4.74983760329708    1.25057600697680
H         -14.06293578902260   -6.58490519164804   -2.57116104509215
H         -13.60676136097756   -5.13280458335506   -0.48013222360830
H         -14.04203636045754   -8.32790471302541   -4.27348540900216
H         -13.48384993583794  -10.37578469044528   -5.74075560718751
H         -11.15905223835222  -14.58934464691542   -7.05659047705659
H         -12.65315768594629  -12.54541163663336   -6.52614347803695
H          -8.94648102720216  -15.75176636161072   -6.24501156940123
H          -7.46086392341787  -14.01239551005154   -4.21393334886336
H          -6.84135894423889  -16.75517751333877   -5.48019872334318
H          -5.72816202310293  -14.41584161604769   -2.64843225866014
H          -4.94950009669799  -13.71473245741629   -4.06220860105867
H          -4.03502045930632  -14.77808841588377   -2.99109240508383
H          -4.17370059560759  -17.22066639182766   -3.30681256255729
H          -3.46734964461836  -16.47922425289169   -4.74491073692267
H          -4.72274128947136  -17.96590605942027   -6.10304295259278
H          -5.60480235414491  -19.04708214783505   -3.51425852876024
H          -5.85310620903217  -20.10185428004367   -6.38610663760606
H          -8.10590312847500  -23.00406584636764   -2.33280379151488
H          -6.93870276983851  -20.73525031217596   -2.65672450829871
H          -9.09542784952296  -25.16918778145359   -2.60554791467201
H          -9.86806521084864  -27.46818935285849   -3.47326452469879
H         -10.49944757229012  -31.20807465507552   -6.59964959109507
H         -10.29633089176422  -29.42522185848404   -4.75894251516518
H          -9.09147140675110  -29.98058707225912  -10.05506281939416
H         -10.40943240001213  -32.32786086265936   -8.59206356909565
H          -9.57283218172445  -31.79658779959411  -11.48890134163704
H         -11.60701826311761  -37.32120289656945   -9.19292746256302
H         -12.61257426746509  -38.85602324213746  -10.82806311041490
H         -12.59912668121879  -38.31969368312582  -13.22574761242909
H         -11.59429858683066  -36.23598336678136  -14.04250327348752
