122
 SCF done       -252.913569771054          0.000828976316
C          -8.26747319662936    2.85261950519967  -12.83577255380141
C          -7.83367806137837    3.67596013176017  -11.80731270049518
C          -7.65576071754535    3.18509524251720  -10.52147335816188
C          -7.91538535577673    1.85571994853966  -10.22444867870571
C          -8.34871086844411    1.02461484169900  -11.24359295640572
C          -8.52173938757661    1.51893759289053  -12.55664016515901
C          -8.96228429537133    0.42899407762146  -13.41902451787514
C          -9.34796982857588    0.54439502001243  -14.72757270185829
C          -9.38078181405765    1.76332295764073  -15.43816964374378
N          -9.43157996042100    2.71695947630861  -16.07476388692734
C          -9.80456799042577   -0.51541107136927  -15.53920131013005
N         -10.18663092492059   -1.32818063182495  -16.25480906342763
C          -8.89708405622411   -0.78873140149059  -12.61885749143393
C          -8.73668038331025   -0.37606721142900  -11.22953169327023
C          -9.16864409624179   -1.07235506472091  -10.13271977790830
C          -9.85819874904027   -2.30083469862700  -10.21416746184260
N         -10.46864540067275   -3.27213913630803  -10.24926374626221
C          -9.05950066608045   -0.60138952840252   -8.80876484964703
N          -8.97479864257462   -0.27891701988186   -7.71064810069907
C          -8.87707352262736   -2.05733780721315  -13.12747952326979
C          -8.39945407208836   -3.23969854759970  -12.51963336921005
S          -7.22884706986399   -3.27044018609992  -11.22135986567205
C          -7.20589166739560   -5.00527481613210  -11.22159276319321
C          -8.05456070288630   -5.51390151892892  -12.18925980076199
C          -8.69667984915566   -4.53085138842910  -12.92789103980708
C          -6.40414450429441   -5.72199613633246  -10.30116209289804
C          -5.52233598120983   -5.21982136883091   -9.36274547599654
C          -4.91259728526737   -6.20442665955584   -8.59300307785191
C          -5.31989046443479   -7.48589559903871   -8.91907553044446
S          -6.47023917224794   -7.45842585431658  -10.22174478879779
C          -4.93923443790209   -8.70650025457863   -8.30249440936374
S          -5.68807120686233  -10.20746892958700   -8.74163738091486
C          -4.76594885271132  -11.07652520892658   -7.54625602016785
C          -3.91326346340958  -10.21746484994035   -6.87079273999220
C          -4.01029818301922   -8.89768236318542   -7.29137162711753
C          -5.00069489450286  -12.45844857881564   -7.35972844474932
C          -4.40589983792520  -13.22887994545525   -6.41282104386669
C          -4.73617653175476  -14.58495319113355   -6.19690787695385
C          -4.24670445151144  -15.43939515945915   -5.21324212803037
C          -3.22533502666069  -15.04531645573614   -4.25424516239751
O          -2.69457256999303  -13.94990702316659   -4.20658368057601
C          -2.86222449582225  -16.12521037509965   -3.30954401575727
C          -3.46194588623901  -17.41181290017551   -3.34153568694961
C          -2.95037491320263  -18.23987448848005   -2.36973136339507
S          -1.74719850889572  -17.47792562685378   -1.40928354246010
C          -1.92149072816049  -16.02621603522499   -2.31206093682354
C          -1.08125164951819  -14.84014880043854   -1.95372751207878
F          -0.27305180557358  -14.45596655712716   -2.94561194671441
F          -1.80731820511141  -13.78093038910842   -1.58613743372584
F          -0.28132627714732  -15.12675866809419   -0.90904460444845
C          -3.31597944517690  -19.66410869435741   -2.08824500020114
F          -4.58973502643551  -19.81223579388923   -1.71477253253431
F          -3.10005283310124  -20.47087591203183   -3.13119980951982
F          -2.57070116459604  -20.15140269781637   -1.07789037842601
C          -4.51830254538467  -17.77938554619593   -4.30394395300355
O          -5.04385120279334  -18.88416209179105   -4.27677995994837
C          -4.85635795681400  -16.73229179515427   -5.23662606612243
C          -5.80880437471302  -16.87145337893444   -6.25071941050812
S          -5.93141250881958  -15.39374174759402   -7.17394469539894
C          -6.66011886651593  -17.93411719760683   -6.62332395741623
S          -6.84960221328047  -19.44101589808866   -5.76764026685446
C          -8.08347049194564  -19.94886215058006   -6.87271148226566
C          -8.30613712327008  -19.00905480369618   -7.87071656867443
C          -7.51642652342571  -17.88605222464353   -7.72239796890896
C          -8.76049048260732  -21.18467627294924   -6.70135274836178
C          -9.68521824030829  -21.77691131869382   -7.54331473957200
C         -10.18816888487338  -22.97703207116299   -7.05402807360046
C          -9.66479412354188  -23.32883217139952   -5.82360095326322
S          -8.51107005498910  -22.14734857218224   -5.27632113921431
C          -9.98929901796031  -24.45764625109154   -5.03150858849300
S         -11.14908660946786  -25.63039363148060   -5.56616654307706
C         -10.98384439274904  -26.54015243971725   -4.08585671246546
C         -10.05615321564359  -25.93917669388003   -3.24827115336396
C          -9.50237002193594  -24.78213184791928   -3.77530206118247
C         -11.79660452915326  -27.67500641939099   -3.88247019750355
C         -11.78507532614054  -28.46194750247175   -2.77103643260201
C         -12.60750257177686  -29.59230420746368   -2.55822644743114
C         -13.82090904139902  -29.89742777952980   -3.11690262685418
C         -14.37911463480023  -31.24540582681393   -3.15657503497001
C         -14.02667840424455  -32.31840608191397   -2.38210424515027
C         -13.07072558374024  -32.30886584704980   -1.34428958471138
N         -12.31807085040670  -32.38379586308288   -0.47999622350128
C         -14.62145453344863  -33.59430321431889   -2.48383613489123
N         -15.05994401464122  -34.65473418514332   -2.51034124142347
C         -15.41214612448206  -31.24335341799810   -4.18475159180139
C         -15.60958423364308  -29.91661483985870   -4.62813732029425
C         -16.52626523324136  -29.63438457645632   -5.62727791581623
C         -17.24792827095079  -30.68244346050476   -6.17839630145008
C         -17.06340587270419  -31.98490258807671   -5.73706130805080
C         -16.14663693860305  -32.27977935912487   -4.73898881453732
C         -14.73847617722728  -29.04015526712233   -3.85878285556227
C         -14.94113272630833  -27.69779207483453   -3.67614670529929
C         -15.91886263790896  -26.94942007390464   -4.36308854394166
N         -16.68159334789949  -26.28308639372159   -4.90366079923048
C         -14.25343314760006  -26.90415858682661   -2.73520818714919
N         -13.76115350674265  -26.20867658294354   -1.96645711516612
H          -8.39615222556569    3.25200559728778  -13.82824168369390
H          -7.62913655934539    4.71516890295547  -12.01478869127953
H          -7.31062485863537    3.84493716347345   -9.74027849015460
H          -7.76958066849831    1.48110247390564   -9.22407325954046
H          -9.19793962770593   -2.19298775271756  -14.15258372635711
H          -8.18472951528562   -6.57061436791731  -12.34073345362125
H          -9.39355074144632   -4.73162865052324  -13.72179269565888
H          -5.34127123943315   -4.16553564009176   -9.24873160197873
H          -4.20588490215471   -5.99604493192969   -7.81118186887040
H          -3.24915875924581  -10.54746415868928   -6.09307406222667
H          -3.42797621354822   -8.09560440015108   -6.87627681084448
H          -5.74003349256777  -12.90827771234150   -8.01233732066758
H          -3.66143873040944  -12.81784487797155   -5.74776606612344
H          -9.02513423210818  -19.13416268835124   -8.65948407222693
H          -7.55043812748796  -17.03946499932947   -8.38604615094407
H          -9.97906511099013  -21.34755840888332   -8.48339138869019
H         -10.91843537561132  -23.58040682035462   -7.56370781604465
H          -9.80417661962844  -26.33051703741122   -2.28012553129909
H          -8.77248868225534  -24.17380505002313   -3.27100332030132
H         -12.46045024627603  -27.92556713174399   -4.70066670746314
H         -11.03824214865780  -28.27660937246180   -2.01242604817234
H         -12.18035175301968  -30.33696396695941   -1.89901392609075
H         -16.67233258525440  -28.62767390827734   -5.98386147281651
H         -17.96109129206055  -30.47924903957916   -6.96256583711723
H         -17.63772861248979  -32.78483227560133   -6.17874596120258
H         -16.01191203385964  -33.29836294901827   -4.41470210061105
