129
 SCF done       -216.851740547534          0.000344383251
C          -3.24158999283171    1.43346058027475    7.00098411429426
C          -2.02807915707281    2.08532943610547    6.84353842329472
C          -1.15599136210521    1.73998426702835    5.82017089087794
C          -1.47573867111457    0.73551524404059    4.91976093673569
C          -2.68531417486429    0.07600099608409    5.06701352411147
C          -3.57227767928538    0.42124231097930    6.11290877180334
C          -4.74551299097437   -0.43802887516837    6.04190337095957
C          -5.88303787737369   -0.31440003498633    6.79050301507817
C          -6.08243676471441    0.68583709563638    7.76672020752662
N          -6.30718742969537    1.47046200638119    8.57335720072808
C          -7.02973958600993   -1.12890579917730    6.67100827844201
N          -7.99690918235910   -1.74580209937594    6.62389661779462
C          -4.46213881412668   -1.44901389376819    5.02283525144943
C          -3.29332235465684   -0.98239075257217    4.27802571373296
C          -2.98370621453315   -1.29655278050566    2.98369078563631
C          -3.77476648318800   -2.12320580808454    2.15811081729870
N          -4.41060423699035   -2.72372131102069    1.41516858148828
C          -1.88069171792552   -0.75775724250158    2.28876624655767
N          -0.98774467771973   -0.36272810340480    1.68583070378493
C          -5.10795880380549   -2.63848908386672    4.91191740746111
C          -4.66331127690879   -3.81977572932085    4.21904582224714
C          -5.62511802407206   -4.67891169875289    3.66379723501575
C          -5.22049237309927   -5.82053085271891    3.01811633851413
C          -3.85040812746883   -6.12904390147068    2.91966572266866
C          -2.89476978064569   -5.31224267768936    3.51011316726823
C          -3.30581022924591   -4.16606901743215    4.15413156194748
C          -3.70229748555532   -7.33966765281067    2.14634498397102
C          -4.97977313149777   -7.77676415538909    1.75770981444297
C          -6.05329384836142   -6.87595893604507    2.32873708981208
C          -6.86715142940601   -7.72332012078922    3.33648770797693
C          -7.88713141470206   -6.96558128507900    4.17562220635548
C          -6.94937877181984   -6.27692484963351    1.23363558687991
C          -6.14921008640341   -5.55250232358227    0.15707066383009
C          -5.13095511397610   -8.91477349042145    1.00428194618880
C          -3.99424803612392   -9.64191807912749    0.62056935150073
C          -2.72697138207731   -9.19911748749387    1.02228337399321
C          -2.57170907801154   -8.05612437392672    1.77680314055024
C          -4.12762329085654  -10.85155098426421   -0.14928765742966
S          -2.87808861971000  -12.06973160023563   -0.13833720645227
C          -3.74389934749228  -13.18028854568079   -1.15558819805399
C          -4.96480962279416  -12.61078243566686   -1.51338160191185
C          -5.16280150773350  -11.30720671868210   -0.93632399240693
N          -6.37729446922449  -10.84270150696792   -1.34441156303714
C          -6.94540969401948  -11.80285232688550   -2.14588642704030
N          -8.21445074374011  -11.57647041986023   -2.70155536334439
O          -8.74546005536626  -10.50971734989044   -2.42735332814819
O          -8.69672532606513  -12.44142059133476   -3.40638428634826
C          -6.12642461256538  -12.90283618521194   -2.26663751414637
C          -3.18194912229260  -14.46283087983278   -1.47428822459745
C          -3.73700348738642  -15.26464369417197   -2.48493062918023
C          -3.20205742610166  -16.50446622311397   -2.73101197267823
C          -2.10242253749060  -16.97390004820263   -1.99038212617437
C          -1.52708471022256  -16.17758433823376   -1.00863107802777
C          -2.06936906673588  -14.93614584181381   -0.76040839254056
C          -1.77784233339188  -18.30567902956786   -2.44378590073289
C          -2.67500683789276  -18.66139572750199   -3.46773409922173
C          -3.64036850705197  -17.53428241749177   -3.74467572507905
C          -5.09954217067300  -17.96971514062605   -3.51336166333528
C          -5.34742034328971  -18.48970524317820   -2.10239723636740
C          -3.48065904241029  -17.00622835479166   -5.18398502463627
C          -2.06145750900053  -16.54941242659451   -5.49799500441057
C          -2.60439452757018  -19.89824243912029   -4.05660942771067
C          -1.59465602990259  -20.79091791010011   -3.66317673746528
C          -0.71852616573740  -20.43044119818650   -2.62838096893633
C          -0.80807860348363  -19.20150843563167   -2.01208380623786
C          -1.53616491929994  -22.08972203625262   -4.28252270293243
C          -0.43601375687205  -22.85408871566343   -4.50455603030728
C          -0.46020186431096  -24.29388816751118   -4.76601208969616
C          -1.51950093065822  -25.03588821915480   -5.20905161872656
C          -2.78849059239134  -24.51978080539714   -5.54997701156297
N          -3.83796973099563  -24.16750719567563   -5.85409150677436
C          -1.46997694795729  -26.42903679662211   -5.43269716339009
N          -1.49614241621556  -27.55899099163317   -5.63078058856910
C           0.87368975319280  -24.79383081316415   -4.46466486421479
C           1.72984947861963  -23.69668106291607   -4.21382142067253
C           3.06018654665370  -23.89929692235311   -3.88383207482792
C           3.53153160763697  -25.20069062086430   -3.80589641568398
C           2.69481623044388  -26.27914535408562   -4.05880801924369
C           1.36196435765176  -26.08945773694477   -4.39038095979810
C           0.97097206594949  -22.47013273145157   -4.39251356595545
C           1.49462049989114  -21.23578276474804   -4.66019796037197
C           2.87289800220565  -20.94020789909494   -4.60681052927319
N           3.98046241919511  -20.64400476026832   -4.55756187993093
C           0.73546887615908  -20.13421583580622   -5.10802559164497
N           0.18776320061206  -19.22518061677415   -5.54443201660579
H          -3.90346015471887    1.71131134521542    7.80462748434453
H          -1.75840177665068    2.87156092440708    7.53189358781101
H          -0.21427610137314    2.25806378159526    5.72295180067312
H          -0.78816631110560    0.47036303307998    4.13291347321426
H          -6.03854143904239   -2.75558469677769    5.45188996868365
H          -6.66473745650878   -4.39433065315649    3.71057128782831
H          -1.84679260519040   -5.56695484189008    3.46363405168963
H          -2.57585183340468   -3.53744709635801    4.64476965252732
H          -6.15958387204809   -8.21892816768227    4.00710064884676
H          -7.38335407896362   -8.50196171847339    2.77048395019125
H          -7.39823651194681   -6.26251181594040    4.84397258658833
H          -8.44594344497281   -7.67344900976198    4.78404019447795
H          -8.59527996355133   -6.42826599651561    3.55114576134337
H          -7.64653545194731   -5.57346239950180    1.68928457216291
H          -7.53422664216685   -7.08090914581736    0.78048235335408
H          -5.59067646097016   -4.72326990117052    0.58311122656763
H          -6.82107782981144   -5.15883340820609   -0.60181880193007
H          -5.44572736732179   -6.22876727977822   -0.32474813462382
H          -6.11464056125450   -9.27006557050721    0.73992456465604
H          -1.85975902888073   -9.77005000022902    0.72366906122962
H          -1.58752090888643   -7.72777003434967    2.07407674706351
H          -6.79304112843307   -9.93696202577068   -1.19728360440336
H          -6.37309895509629  -13.78357260591293   -2.82217176072918
H          -4.56315903257799  -14.89754865917639   -3.06932086178450
H          -0.67521113034789  -16.52451681332338   -0.44395414132832
H          -1.64292940822027  -14.31028244590662    0.01019851148251
H          -5.34982558039968  -18.74852651177939   -4.23593252447966
H          -5.75350912849642  -17.11684764752220   -3.70481622031087
H          -4.72128153969968  -19.35479377043562   -1.89481463841300
H          -6.38805209984701  -18.78468322562927   -1.99154298647278
H          -5.12699014857557  -17.72201690686860   -1.36362384816124
H          -4.17264083371477  -16.17275533552196   -5.32414846881873
H          -3.76726369586245  -17.79861651719720   -5.87778708185172
H          -1.75218111282382  -15.75608537889950   -4.82049333991825
H          -2.01370076085616  -16.16868972418769   -6.51531199463457
H          -1.35943371295111  -17.37407250780313   -5.40933106801962
H          -3.28585813786745  -20.18620818078571   -4.84315291093711
H           0.01114802117240  -21.14865881349702   -2.28133411522767
H          -0.13792363646317  -18.94461389066567   -1.20575442214899
H          -2.49963550993216  -22.51097337359835   -4.53860850364522
H           3.71656006129595  -23.06909323487420   -3.67856196635020
H           4.56359101212029  -25.37513511340311   -3.54299944186645
H           3.08442207312807  -27.28346632798744   -3.99361345794237
H           0.72598577703844  -26.93889979783548   -4.57768459723469
