111
 SCF done       -211.580720096626          0.000779529637
C          -2.82920024954436   -1.86274861585570   -2.90359907706944
C          -3.76169039413995   -2.00924456580786   -3.91867793361504
C          -4.46189235450250   -3.19713624924527   -4.08207621507651
C          -4.24304180414420   -4.27776375750710   -3.24029085102944
C          -3.31140978428427   -4.14570263248829   -2.22438847841486
C          -2.60544255049826   -2.93184639780944   -2.04788179216374
C          -1.72741733578638   -3.05821216070514   -0.89573386029237
C          -0.80878659512847   -2.14053131730868   -0.46573854844361
C          -0.56389984683969   -0.90707556851391   -1.11169466885612
N          -0.31324120548152    0.10793168780720   -1.58317423819435
C           0.04207074766926   -2.27972039397240    0.65283710453104
N           0.75902757139269   -2.30336515544718    1.54966010732465
C          -2.04104663882439   -4.34741781503349   -0.27273501568648
C          -2.84523286793629   -5.10169082272435   -1.23051927751190
C          -2.92702260219396   -6.46009646485175   -1.31453770639415
C          -3.67874365951542   -7.13579174555224   -2.30065204730960
N          -4.27959393969054   -7.72060447014974   -3.08282565014999
C          -2.13818639532229   -7.34487588083700   -0.53962192636477
N          -1.40348916470973   -8.09930415392415   -0.08210770491161
C          -1.77000258208404   -4.62927635357003    1.03238883308121
C          -2.34186825929514   -5.63900240230983    1.84735920747124
N          -3.22520323407348   -6.52867115006004    1.41791532051242
C          -3.47156950113294   -7.34626160981984    2.46025197700123
C          -2.67370202756780   -6.96171067762512    3.63145369422975
C          -2.95246963969579   -7.85837024146499    4.77020288462169
O          -2.51075820422088   -7.81092391474230    5.89207394817973
C          -3.93511603414653   -8.80297528607301    4.19272623049962
C          -4.22969585537404   -8.44227099192245    2.78458762446231
N          -5.16034045649125   -9.27661581229532    2.26022209851351
C          -5.45306121708910  -10.11104302009290    3.22475774081268
C          -4.73228418157537   -9.86334826526051    4.46525523886183
C          -1.98254611958785   -5.83739093938734    3.27470828654009
C          -1.07587445264076   -5.04596274733507    4.05030906214348
C          -1.03224179915877   -3.69574701869756    3.97704224435322
C          -0.13199842745883   -2.80294156734866    4.61892825020456
S          -0.50486611172902   -1.11043688711712    4.51512480295903
C           0.96013377031026   -0.67631444216730    5.34215625577987
C           1.68308730718243   -1.82195885679444    5.69164438332358
C           1.07120780527430   -3.01347449133437    5.29173789064522
C           1.66441868537717   -4.35198026049040    5.57402041212931
C           3.07939585695508   -4.29023814335223    6.16005579689698
C           3.42810530035428   -5.68165715667992    6.72099934804159
O           2.77325372377270   -6.65104803971052    6.45697350237766
O           4.51383408520169   -5.74687043342592    7.47734380905174
C           3.19190354822640   -3.15903980589968    7.19213157159846
O           4.49356486328558   -3.14517230154899    7.74714440986301
C           2.93536548752077   -1.81687236473302    6.49817446843623
C           1.21506828555639    0.66836540699794    5.67553552737525
C           2.44268657029916    1.15668969350060    6.02484504384284
C           2.62389979239217    2.35962563390972    6.73048308543340
N           1.63574444916607    3.17488426388398    7.09896829703906
C           2.16557824662314    4.01589948121432    7.99295471961463
C           3.58370093339402    3.70302103281938    8.25468638496058
C           4.12998870564051    4.58464084034999    9.30310106896671
O           5.22916361432498    4.53712062538157    9.81743656781444
C           2.99868123181578    5.47294480087705    9.59123324250101
C           1.81893029250865    5.09037531162224    8.78634802122547
N           0.77534197102170    5.90274136554186    9.05332643983444
C           1.22317671663165    6.75688685293762    9.94881846918521
C           2.59998328498697    6.54823104518669   10.32526384218956
C           3.90938573718812    2.68967072383123    7.39429037894673
C           5.16033315835371    2.04355299824545    7.17135713816503
C           6.11321800032200    1.96998350022091    8.12975642288031
C           7.41318839208202    1.43859472087716    7.93101790270740
C           8.24808042506217    1.09846504117238    8.95691639206389
C           9.70423525640990    1.02420403431677    8.92087014147413
C          10.48981439428320    0.85913590765176    7.81481398776504
C           9.98711096765779    0.66466760698882    6.51003065456600
N           9.62474774701765    0.49108312443469    5.43507341783365
C          11.90045524553358    0.81363355875879    7.84405043047550
N          13.04610891276785    0.77059483590970    7.80531962105520
C          10.15545599522713    1.16496664688143   10.30010087349065
C           9.02985518496882    1.15132674692443   11.15894991810550
C           9.18128028610641    1.27992558392837   12.52950137461839
C          10.46238356569435    1.42786662457358   13.04007354877410
C          11.56842946483037    1.43660500080134   12.20133687087717
C          11.42946431855141    1.30338829835492   10.82709008479950
C           7.84495846863634    0.95036702153148   10.34709847939743
C           6.62921627819711    0.46533767040058   10.75769179627036
C           6.25649507457986    0.32368311413769   12.11122624833820
N           5.90755812640336    0.20923079224276   13.19776115916722
C           5.70100705296129   -0.10375583372556    9.86689470792906
N           4.97251174927301   -0.68316073100567    9.19135440157454
H          -2.30028848363344   -0.93122807999882   -2.78650498705107
H          -3.94775461537053   -1.18321245293521   -4.58756540354469
H          -5.18862306779803   -3.28319356565204   -4.87509755145405
H          -4.79744408386876   -5.19252231058382   -3.37200852379001
H          -1.10252814654181   -3.95965107076557    1.55335912264311
H          -6.17056011136559  -10.89699988909135    3.06463503392175
H          -4.83814223032093  -10.42931891708466    5.36922189338640
H          -0.47007329000780   -5.59552318536400    4.75369291721406
H          -1.79210509996145   -3.18999689354232    3.39157570838226
H           1.68951030558408   -4.94861538836137    4.65975385164340
H           1.02569509846718   -4.88676459366473    6.28492976152962
H           3.80945136204891   -4.08922615371391    5.36628363665992
H           4.85582870000040   -4.85129737191759    7.68371160294577
H           2.44476181248919   -3.31741426115745    7.98639946726100
H           4.59720222297860   -2.34960494728514    8.29940511525021
H           3.79704685274101   -1.62053533562103    5.85061713097662
H           2.89417431510417   -1.02838993417510    7.25492696430359
H           0.37355977528070    1.34782752031632    5.70955235098106
H           3.32927233477053    0.57259737955346    5.84311487767070
H           0.57402361328872    7.52150853835309   10.33840497258287
H           3.15074043438674    7.13367223515204   11.03453740269147
H           5.32447439480663    1.57518614669628    6.20938808622670
H           5.88902027560029    2.38919396820187    9.10308205968302
H           7.78328046557240    1.40915317606638    6.91521741872705
H           8.32611879077771    1.28087060059962   13.18629781905773
H          10.59850438963181    1.54008949369369   14.10444466411697
H          12.55533239344282    1.55260001217815   12.62186170518696
H          12.30011043787247    1.31510359899180   10.19194472281314
