109
 SCF done       -202.097086833799          0.000727848575
C           8.65549288942981    0.99990204685339   -1.57155929334562
C           9.02458102038621    1.52763716958206   -2.80170143950206
C           8.10023001197642    1.67469330333919   -3.82392632288433
C           6.77268040519498    1.30943525217018   -3.64298611195025
C           6.39464693949202    0.78311981050626   -2.42177584756377
C           7.33816563556054    0.61793699463045   -1.38156139971065
C           6.67137532496873    0.00289101950910   -0.23888944246019
C           7.27088552784429   -0.34325297423691    0.95511233779137
C           8.61178678175258   -0.05144895984474    1.27758734036806
N           9.68975586190874    0.15977212350380    1.61261728899531
C           6.66402667338430   -1.02799730496992    2.01842904626310
N           6.25243671234041   -1.60690167657533    2.92680553573559
C           5.30688572775644   -0.25434558593897   -0.63737866374146
C           5.09200896167959    0.36198172773907   -1.92357205255226
C           3.87315165802125    0.75416788251001   -2.42504085822382
C           2.68230843829170    0.67060536340559   -1.67687920082874
N           1.71670578702114    0.68162335454384   -1.05421738155627
C           3.70073605822512    1.39019756173925   -3.66795709245986
N           3.50115508156899    1.89317764260440   -4.68086538643485
C           4.44313675176676   -1.02513747641617    0.12251453351601
C           3.39186636446528   -1.87378776822613   -0.22923340891339
C           2.76007759420784   -2.58382537142176    0.79176451421313
C           1.81042747656362   -3.55905575529537    0.61992925267411
C           1.30155608882846   -3.91478377841139   -0.70273527966114
C           1.76633073108271   -3.37480980425611   -1.85077431611310
S           3.01862980973718   -2.20350484036459   -1.92316855752916
C           0.32441773669074   -4.92031130555344   -0.46312672754906
C           0.25208810488867   -5.21725533939041    0.90486324660930
C          -0.70425390856127   -6.22687146568967    1.16456973271315
C          -1.30918445995700   -6.65347800442782    0.02630685201598
S          -0.75137979698383   -5.86065829367986   -1.40822916214727
C           1.18873252682268   -4.38352976411172    1.60874958795184
C           1.55643088711393   -4.36094447284211    2.95709547778741
C           1.07673710298714   -5.18690379962475    3.94292292906988
C           1.47474333857856   -5.24302544545513    5.28150942762123
S           0.50780246238129   -6.27195787792181    6.30817490316722
C           1.41282977773000   -5.88575382976448    7.72681460093514
C           2.44678233217434   -4.97212014699804    7.41608660569146
C           2.51460310114131   -4.63239050300501    6.03381311984020
C           3.57382555215380   -3.81931459397539    5.59764403990244
C           4.47466810021262   -3.30518108461101    6.50232617805318
S           5.85337011145817   -2.29583838117040    6.03860675982759
C           4.34737698914872   -3.57636997672068    7.89172754968862
O           5.18354828865628   -3.04731677169190    8.80687452654839
C           3.35527089191676   -4.42184126095481    8.32632648897264
C           1.19932748732199   -6.49246719466780    8.96537912416504
C           0.22668812684458   -7.40730209491197    9.26352879796067
C           0.19423412315664   -8.15920704023473   10.46114210378617
C           1.27436576385350   -8.25505073684356   11.32317767382993
C           1.33957556030854   -9.06585061260326   12.43794011824175
C           0.22061466512178   -9.90859705821603   12.84841054883512
C          -0.95248263201720   -9.96787616410929   12.17550408001027
S          -1.27650215040563   -9.07136292210144   10.74862629892094
C           0.69365065121793  -10.63162927088467   13.97959066325643
C           2.03112495868142  -10.31213667740158   14.23568405252503
C           2.53649180340478  -11.02750187209187   15.34319717294676
C           1.59834729755332  -11.85179111511991   15.87930220815940
S           0.07029377598716  -11.79955319870129   15.07112171009764
C           2.46281669213689   -9.32974137382982   13.27535488907615
C           3.72596014214757   -8.79600123351824   13.02385260083342
C           4.93345933942953   -9.18057103705364   13.56129135616562
C           6.17210033386111   -8.67256109986505   13.16634591282864
C           6.52773817335746   -7.93683086037564   12.04001468147601
C           7.68347725995579   -7.05904188434346   12.01388431354820
C           8.62480438150915   -6.87680064776741   12.99891911885763
C           8.67031656511460   -7.51829953755300   14.25306708762389
N           8.79209028330992   -7.97101228601757   15.30289699727916
C           9.72227859877291   -5.99767313602024   12.89403874172172
N          10.64367500806397   -5.31171430236094   12.88873677102308
C           7.64980001610758   -6.33185734750339   10.74952317660810
C           6.54110817771992   -6.78171076406742   10.00051786209369
C           6.29022519596887   -6.26846355686802    8.73871862171242
C           7.14627609127298   -5.30265730948131    8.23164676559941
C           8.22628542381813   -4.84894257335072    8.97185701108886
C           8.48956771648454   -5.35800570774034   10.23517809600646
C           5.88398891745325   -7.84753889249398   10.74709494572100
C           4.98799611273575   -8.73353184250955   10.18299362953278
C           4.31436409427787   -8.51260557377550    8.96974326541106
N           3.66111571960954   -8.35358041134026    8.03592214731940
C           4.64241244991933   -9.98253861727019   10.73021866010709
N           4.36648029762236  -11.04158863953675   11.08051903708975
H           9.38887501419076    0.89525764329807   -0.78894117193773
H          10.05000382171287    1.82447932683755   -2.96110597079520
H           8.41291504916228    2.07909333740524   -4.77451494836993
H           6.06121604554406    1.42541153735704   -4.44476946112440
H           4.70096189686084   -1.09059355539994    1.17039847063009
H           3.07241977791966   -2.32999141507185    1.79547525090025
H           1.39659070497510   -3.65951529164270   -2.82298349651550
H          -0.94987354577363   -6.62546775519146    2.13133845016571
H          -2.06909424363241   -7.40420930013611   -0.06867473546273
H           2.29356954277507   -3.62171089889115    3.22438876536810
H           0.28544502195078   -5.87492147991823    3.68191539680054
H           3.71428690639313   -3.61066868019581    4.55035873643173
H           5.67888982025992   -2.26869132864232    4.71794604022442
H           5.84175335060312   -2.48065872303744    8.38161514930632
H           3.29983700993141   -4.63597002151237    9.38039430208901
H           1.90981540440488   -6.21584846202618    9.73000835972709
H          -0.55258053776812   -7.59952287197902    8.53825240698401
H           2.15173676115411   -7.68718257437903   11.05472297064362
H          -1.76556205367730  -10.60848653684695   12.47788467008559
H           3.53214882378131  -10.94524613287171   15.73746099675272
H           1.70705594936741  -12.50753543542325   16.72094733582426
H           3.75410125869154   -7.99773993239823   12.29342993603196
H           4.94001544167234   -9.89081192166121   14.37361146969679
H           6.97261597861484   -8.83928216882130   13.87541573908338
H           5.44952259287401   -6.60170964487217    8.15231923421645
H           6.97104693180831   -4.90665934940593    7.24284202902983
H           8.87875351431305   -4.09442216812071    8.55933209701475
H           9.34083788996871   -5.00051924327196   10.78975780333974
