108
 SCF done       -207.898535289976          0.000927330081
C          -0.43058788203651   -6.43652075236220    2.03738938663845
C          -1.76570109121381   -6.40413375854094    1.66304319037087
C          -2.49299858354061   -5.22172791987230    1.69479053588365
C          -1.90246433844774   -4.03223896900968    2.09394357849303
C          -0.56919483602208   -4.05219315019264    2.46812978383546
C           0.17271376565240   -5.25739244099744    2.44850202131802
C           1.52991591761959   -4.99071437822422    2.90853157556464
C           2.57309742751088   -5.87109107074585    2.92383714219581
C           2.48381494782907   -7.20897288450687    2.47741675777695
N           2.47412122383375   -8.30266043969732    2.13188736710182
C           3.88645453777948   -5.56766265018196    3.34989783247606
N           4.97298234691578   -5.39822408273451    3.67601763091232
C           1.54479001004281   -3.60021798074043    3.36685373937010
C           0.31775155781905   -2.97791606209903    2.87343098179969
C           0.16115008374526   -1.64177991865287    2.63288549597957
C           1.23033524188293   -0.72494309520387    2.69583612217691
N           2.08221825938047    0.04022699646932    2.61589356164739
C          -1.04827985409210   -1.05291710584560    2.21085991062638
N          -2.02506724664856   -0.53551233106491    1.90288677416700
C           2.44514603767614   -3.04106960296335    4.21959626568947
C           2.25940209170347   -1.85518800203223    4.99133721292147
N           3.28570649741354   -1.09311028869925    5.32537421174004
C           2.78133742613485   -0.08752898056546    6.06031910849188
C           1.32389778390872   -0.24245748663829    6.25045997606757
C           0.79874864182508    0.84317108826873    7.09196064105555
O          -0.33974058474006    1.02061240900910    7.47711668389753
C           1.99240080505558    1.66852081956948    7.33913279471134
C           3.18184638625502    1.05800291903974    6.70120271409488
N           4.28593879931732    1.80635020694123    6.94025880841174
C           3.86941382904727    2.81527492974669    7.66248550072064
C           2.44516423328518    2.79180346132641    7.94994590589204
C           0.97193214989063   -1.37888030610714    5.57306132336696
C          -0.24223597208531   -2.12915576998059    5.51048489344357
C          -1.53192872294788   -1.73097153132443    5.58816779429926
C          -2.12400076705001   -0.42990129404929    5.64102392271303
C          -1.54906604979835    0.77478889175642    5.17488896813698
C          -2.16514918897280    2.04307449138943    5.44593338409914
N          -1.53144250764703    3.17732180729852    5.09718172934774
C          -0.38583487686178    3.10111808774025    4.48878638747001
C           0.16396556572283    1.85541495398459    4.12076408945877
N          -0.41505336461958    0.73455267631541    4.44533698988335
C          -3.40318063611093    2.12446207699609    6.12466340774303
C          -4.02540949557239    0.90568487804897    6.49847357055884
C          -3.40837397435511   -0.35087783843954    6.23814288234107
N          -4.04053634446818   -1.49302669216282    6.58798212687136
C          -5.20312535323551   -1.41164794364373    7.16550990010865
C          -5.81566749663334   -0.16440393677523    7.42944341831982
N          -5.23660074618375    0.95224356618899    7.09591777076158
C          -4.08847908587414    3.32803382760632    6.46693154863516
C          -3.87179668302440    4.57494392179941    5.97573705615102
C          -4.63637844764856    5.72306090837677    6.30347907331515
N          -4.14551734411392    6.92438290449770    6.01540020510566
C          -5.01976089379114    7.81915919118202    6.49496024586951
C          -6.15654779885540    7.15579447128420    7.15823717255366
C          -7.10755438927571    8.16041013498811    7.67104066304225
O          -8.11113651195259    7.98273106228537    8.33272135829763
C          -6.52033763324766    9.42460428150315    7.21545417497339
C          -5.23587367873448    9.17862824190586    6.52334406082139
N          -4.70283748126794   10.33942785304362    6.08211792979267
C          -5.56396011197645   11.26830099070761    6.42993680532773
C          -6.72682230556040   10.76536955649491    7.12835296815817
C          -5.95883107852711    5.80655833488604    6.98812995392267
C          -6.84718596012209    4.73695911180079    7.29693605072114
C          -7.92998250648395    4.89964845792967    8.09889408878749
C          -8.80927901874021    3.84367579825829    8.43833318647106
C         -10.02288550791438    4.01697437943139    9.04158305187553
C         -10.75968577436536    3.00967343060146    9.79279803687456
C         -10.56390261783339    1.65373508357742    9.77167629087318
C          -9.61840746001303    0.97632400763541    8.97879606106612
N          -8.87179321849408    0.34355706861216    8.37648441182264
C         -11.30717543568094    0.73029108466119   10.53828896559559
N         -11.87056719598756   -0.07906016231010   11.12542835841045
C         -11.72744525513829    3.72454727424580   10.61290482124065
C         -11.67907192168694    5.10095511047636   10.29006686187018
C         -12.48243808345736    6.01094185267650   10.95632856414679
C         -13.33708403352674    5.54136550917139   11.94260143986746
C         -13.39592159833423    4.18966873136590   12.25263313008247
C         -12.59526955352470    3.26906935076393   11.59405148164006
C         -10.73292356524775    5.28313027756925    9.20045046110482
C         -10.69262673376211    6.33953306240189    8.33416260996440
C         -11.42981283037206    7.52985111727914    8.51397564577124
N         -12.01230897248461    8.51231906669403    8.61952350642068
C         -10.02853076286420    6.31318201122888    7.08669861745512
N          -9.59157342835835    6.30361596337324    6.02589255406866
H           0.11511938811953   -7.36524334591483    2.00963471755387
H          -2.24546912235883   -7.31670740926322    1.34439299634194
H          -3.53222596040320   -5.22624393078071    1.40418011921867
H          -2.47242226591711   -3.11743164058541    2.12097636583588
H           3.38872451383394   -3.53964048203081    4.39970976819892
H           4.56134950883553    3.57025645150607    7.99287346210575
H           1.91215104936882    3.52335087813030    8.52442638632938
H          -0.08198871000484   -3.20145012728473    5.44233132457824
H          -2.27321755599588   -2.51681714978877    5.67961060069852
H           0.11045139932823    4.03154733692531    4.25156169723128
H           1.07896129125667    1.78718819375356    3.54601179500112
H          -5.69050178530488   -2.34286543230216    7.41887287948419
H          -6.79278667292144   -0.09585683818303    7.88784860743328
H          -4.87626830314593    3.16276219977766    7.18773749550583
H          -3.03898621385241    4.75564715372167    5.31109319763931
H          -5.37073289850852   12.30088907339437    6.19630363328255
H          -7.54740582873777   11.35592323058019    7.48471587610723
H          -6.69062140173409    3.78351107555899    6.81330220007322
H          -8.10961362897821    5.87004088092993    8.54176792585467
H          -8.44324127455171    2.83750171467808    8.28285527077798
H         -12.43951286480344    7.06327895345681   10.72705241595548
H         -13.96428343754308    6.23918979621181   12.47589642324616
H         -14.07141670418471    3.84680122695387   13.02134597197309
H         -12.65106329749720    2.22413933079921   11.85160168596783
