114
 SCF done       -215.008022541046          0.000862497316
C         -17.46928939112540   -3.19162866565799   -5.31634017785561
C         -16.31562036419844   -2.47324428556613   -5.59389528045149
C         -15.09188332172224   -2.84581422702443   -5.05636322336338
C         -14.98776319626240   -3.94441334705086   -4.21634367769321
C         -16.13304695388900   -4.66854586529906   -3.93239853339456
C         -17.37930411938619   -4.29832842836915   -4.48687069139326
C         -18.39604424468203   -5.24272702818595   -4.03843769243220
C         -19.74154466596223   -5.14740753416744   -4.27888694002815
C         -20.34384792926577   -4.09613797386049   -5.00175729934995
N         -20.89977227276062   -3.27293395130961   -5.57714905442423
C         -20.72109427003161   -6.04918305873648   -3.81388729452857
N         -21.57248207118480   -6.73908781247869   -3.46954406039487
C         -17.69796016305009   -6.29414952292213   -3.31063286712960
C         -16.34384288182923   -5.81691958501534   -3.06570661750762
C         -15.54660218215349   -6.17351465751664   -2.01034371205622
C         -15.96017935801275   -7.05114213994860   -0.98596374503137
N         -16.29105031609589   -7.70936553249236   -0.10560031501811
C         -14.26949251699539   -5.62906322785398   -1.76998462365320
N         -13.21691415522042   -5.23429699477080   -1.53782007491351
C         -18.22293291612615   -7.52743609548211   -3.03083371101185
C         -17.54828232192123   -8.73116709930004   -2.74403566723798
S         -15.88174242117019   -9.05968459233561   -3.15713375812276
C         -15.99576118279701  -10.67872733291943   -2.54809536943834
C         -17.27090973874868  -10.93914897071609   -2.06781635839548
C         -18.13609237890364   -9.86569620742952   -2.20050021649751
C         -14.88035158838244  -11.55051273611698   -2.56054331104822
C         -14.79211444697335  -12.81964710211407   -2.01632618861978
C         -13.53904320052366  -13.40065870831533   -2.17033253388111
C         -12.63778466922175  -12.59768448939654   -2.84444655953506
S         -13.36743769804379  -11.08350039881343   -3.28768206784078
C         -11.28918350424430  -12.88901414258448   -3.16747774410005
S         -10.52717123909811  -14.34437145689949   -2.59676992262287
C          -9.03062975009551  -13.93037541890963   -3.38641748124114
C          -9.15089054541135  -12.72273425378859   -4.05090323766731
C         -10.40764994155017  -12.14036713052420   -3.92401087537591
C          -7.92024396897063  -14.80427937562846   -3.26287502546334
C          -6.73445318483615  -14.66630361875239   -3.90417649947945
C          -5.63488680498639  -15.54525817763679   -3.74316348064862
S          -5.67084730839175  -16.85373456690765   -2.56711996972976
C          -4.09562557331937  -17.32940479099166   -3.02031069052077
C          -3.56522448443847  -16.52592815251215   -4.03481488242730
C          -4.43329182403075  -15.51607824656421   -4.43598448958932
C          -2.20245268564374  -17.01405983623976   -4.38576127358467
O          -1.44203509862361  -16.57897273821398   -5.21318786165415
C          -2.00626407530412  -18.17192329868205   -3.46836092979144
C          -3.14407634027096  -18.32475301481946   -2.67109279535386
S          -2.99927371951295  -19.62265273212012   -1.56973170584852
C          -1.39243087526290  -19.98231951744297   -2.18377558616269
C          -1.01861785851279  -19.11387939587117   -3.19496937742901
C          -0.65475418650264  -21.06277994811846   -1.63729409941236
S           0.87425597746505  -21.54618410839128   -2.31653800603569
C           1.03428056891017  -22.82576954799853   -1.14475855082615
C          -0.04650443283331  -22.84574652143979   -0.28711206309584
C          -0.99273737005472  -21.86309153018941   -0.56453833210862
C           2.15140217142829  -23.69896793329825   -1.15675944921652
C           3.19854481191438  -23.74012782121280   -2.05588641253362
C           4.11753060210405  -24.75134390420810   -1.78998080592302
C           3.80032088217512  -25.50389868377760   -0.67659582647229
S           2.32189111321128  -24.93766682953636    0.05326818029908
C           4.50212758918601  -26.60301034548674   -0.12518975775563
S           5.90460213691885  -27.26852737702080   -0.89805539945161
C           6.08691027314496  -28.46958243208405    0.35693660537293
C           5.09005887606300  -28.32660382828404    1.31136898789956
C           4.20800213883211  -27.29246258725239    1.04105525346452
C           7.16032881929761  -29.38136202498692    0.29541287690719
C           7.40119924834632  -30.36137933513962    1.21279215268321
C           8.43727349133997  -31.31827245192068    1.16366936775973
C           9.62413270642941  -31.31052971886182    0.47465708440770
C          10.38304233717191  -32.52064996634838    0.17623188939278
C          10.27179995288452  -33.74827665221699    0.77430301321364
C           9.41319430288946  -34.07777161868958    1.84449272449555
N           8.75561957734392  -34.43144399347776    2.71723849739477
C          11.05481804403663  -34.86972450289186    0.42651647950831
N          11.65417862960624  -35.82228999772379    0.19985433548776
C          11.31173961403146  -32.18343254975024   -0.89529724391890
C          11.25249555372114  -30.79114501619245   -1.12595757043132
C          12.02288793316721  -30.20613621455834   -2.11699286687622
C          12.85537702161959  -31.01716740273505   -2.87376541935357
C          12.92267766679987  -32.38335759923962   -2.64213410484801
C          12.15426733682670  -32.98047825753532   -1.65385717761448
C          10.31823727149194  -30.20678843311977   -0.17395667966459
C          10.30895105256975  -28.89007658418334    0.20664851821789
C          11.08222447856415  -27.88654559661644   -0.41183768524146
N          11.67095276775190  -27.02227310575226   -0.88566116811992
C           9.58707518038564  -28.38204371648735    1.30516231613378
N           9.04841395098726  -27.91336183116294    2.20386075946977
H         -18.40959802111890   -2.88780009894239   -5.74583787832974
H         -16.37427034085810   -1.61186740063486   -6.24158715741886
H         -14.20750600651924   -2.27436922431881   -5.29345872967417
H         -14.03221046843973   -4.23013273000619   -3.80704226117337
H         -19.29723440911335   -7.63997752878057   -3.10440607359814
H         -17.55212903608550  -11.88540572044518   -1.64435436576532
H         -19.16425552568069   -9.87823195502903   -1.88528955194143
H         -15.61258304872894  -13.29829800306173   -1.51434243170226
H         -13.27753777149306  -14.37921335525785   -1.80850541751092
H          -8.34398683577611  -12.27468443410434   -4.60133554407043
H         -10.68700096175649  -11.19989959191900   -4.36580016035190
H          -8.05633197002276  -15.64921443803550   -2.59933576500518
H          -6.58236414421300  -13.85196544157944   -4.59853229264203
H          -4.21497047318827  -14.79077322387026   -5.19842029850695
H          -0.06857162462232  -19.17498908458009   -3.69426813280385
H          -0.13496082346969  -23.56214023200353    0.51029697965622
H          -1.90166783230069  -21.72603925903080   -0.00591044461739
H           3.27662952948756  -23.05253084672501   -2.87923139463321
H           4.99607385836194  -24.94131606156125   -2.38076366322437
H           5.01560500585069  -28.95774101571136    2.17747159868986
H           3.37276107342848  -27.02805767571645    1.66541707941807
H           7.79866132620796  -29.29594499383543   -0.57469766871036
H           6.69133607228824  -30.49301511417255    2.01691940465793
H           8.21862987008366  -32.22552399005068    1.71220352328825
H          11.97331976796906  -29.14722969822916   -2.31226904155668
H          13.45658947871291  -30.57666435371496   -3.65435697207903
H          13.57897757448889  -32.99541192880648   -3.24173912146117
H          12.21500336538976  -34.04412519705785   -1.49353918537001
