126
 SCF done       -220.449118865402          0.000774118787
C           1.92422932190284  -14.99162177755450    1.25286854973026
C           1.88551554871511  -16.00104250222757    0.30099101012729
C           1.49056028768707  -15.74134159178910   -1.00232879997831
C           1.13229052332667  -14.45967188596711   -1.39611460560181
C           1.16683183974237  -13.44668354206783   -0.45474934905333
C           1.55674086520536  -13.71017281406790    0.87751608893600
C           1.46185774557189  -12.47411191588228    1.64802612822193
C           1.79187453013369  -12.33283611906475    2.97516545227645
C           2.33197438058250  -13.36383605517541    3.77001283299711
N           2.78011694610622  -14.14877085154711    4.47889316427617
C           1.66369334119416  -11.15660260953255    3.73873376753386
N           1.57699585902097  -10.24535471515100    4.43543965137711
C           0.90478560722938  -11.46916301790665    0.76372713994098
C           0.88949163440010  -12.02275605760244   -0.57292171827632
C           0.92098097907816  -11.29775709112437   -1.74026335734523
C           1.02386768949265   -9.89278834300913   -1.76864919061944
N           1.17105174562574   -8.75443710738836   -1.82148793087180
C           0.97124099981265  -11.87301610148945   -3.02330912093150
N           0.99410992596645  -12.28765431883375   -4.09408108547058
C           0.43732980835883  -10.24183943507277    1.18955433610456
C          -0.55563772010035   -9.41402232731413    0.64021500317317
C          -0.75449610676024   -8.14537941766787    1.16842964910375
C          -1.74275931523926   -7.26123561842506    0.78235577044259
C          -2.63387284660289   -7.56599694780466   -0.34750736285004
C          -2.65938726687814   -8.75493526941469   -0.98536395229744
S          -1.64463488972130  -10.07669270513926   -0.58513581622585
C          -3.40407957056573   -6.38904439154141   -0.54988986265106
C          -3.04696422474018   -5.42574904452835    0.40244596715617
C          -3.81190568082317   -4.24382650410357    0.27689909978926
C          -4.69475016064202   -4.32925687819118   -0.74899018718583
S          -4.64453118459528   -5.84170682532842   -1.59669240370135
C          -2.03023610344614   -5.95644365373846    1.25613256729212
C          -1.47657715369361   -5.24873358469792    2.35680285766963
C          -0.89010490124641   -5.81384558273183    3.43793003058991
C          -0.29548641243283   -5.11861614786468    4.54913194507713
C          -0.12206715509562   -3.73579238208501    4.58500874889346
C           0.47892273314508   -3.08888461677962    5.66350316393197
C           0.83599674869106   -3.84834441956765    6.80195103538799
C           0.69343748526279   -5.23850949478342    6.75330165121019
C           0.15844788695902   -5.86157569038553    5.65266266519365
N           1.27113979683355   -3.24915814469527    7.98304743247429
C           2.29543904910075   -3.85716649975082    8.72319993423845
C           3.37845118682207   -4.43250270197462    8.05920849054614
C           4.39574830852893   -5.02920919400986    8.77811622140100
C           4.35384891951790   -5.05297039553106   10.16260397430860
C           3.28023117341050   -4.48089929381136   10.82554670756008
C           2.25289262059668   -3.88968877308179   10.11563196300821
C           0.62274366157881   -2.11080389731311    8.47700342222880
C          -0.74120027491725   -1.92525092832091    8.25748438993545
C          -1.36845180245274   -0.78120147816543    8.70978486591073
C          -0.65385268122720    0.18865584572503    9.39410434577538
C           0.69754472949326    0.00058010206463    9.63062390480481
C           1.33603650194136   -1.13654435367750    9.17525033050476
C           0.73310122138691   -1.67259989038841    5.51359692586119
C           1.74590085327353   -0.97627801642873    6.06737593742272
C           1.97290564815052    0.42598000889810    5.87491839290922
C           1.36239945863902    1.18447185127767    4.90390578433931
C           1.55936056832523    2.54722042878078    4.71019024723548
C           2.57132236280648    3.28237078043796    5.46823537888542
C           3.28435595573139    2.74220526611120    6.48537761209059
S           3.10803925580165    1.12048583687596    7.00813313400830
C           2.63502741537442    4.57292863698184    4.86919439588140
C           1.74553100713985    4.64076039455570    3.79770649148093
C           1.75933574815456    5.90283143344335    3.16861968434816
C           2.64805092226547    6.74315314101729    3.76288742815325
S           3.49134365778238    6.04456232312679    5.10168438780607
C           1.02611501244411    3.39413794226645    3.70450704200538
C           0.01351118821784    3.11865535780734    2.78003779363242
C          -0.95083569491656    2.14445831195481    2.94745338788580
C          -1.80503720496538    1.61771716588364    1.98586823241642
C          -2.04666638702227    1.98709983089358    0.66383941086459
C          -2.36452270572136    1.01953538708689   -0.35842022131305
C          -2.39648239362876   -0.35219438220402   -0.21674967372760
C          -2.04165506044569   -1.07150764086011    0.93706308669569
N          -1.72963246418674   -1.75466810578102    1.81073389837114
C          -2.76863034309683   -1.24036607219773   -1.24363301276930
N          -3.08984548233607   -2.02803509772646   -2.01646376073227
C          -2.49938637553287    1.74135400413969   -1.61734953744745
C          -2.25825635668566    3.11148899460450   -1.37326359655318
C          -2.26892162507706    4.02249667584708   -2.41410949663927
C          -2.52918151878923    3.56174338520489   -3.69779508290112
C          -2.78158832496022    2.22019840949522   -3.93590800311360
C          -2.76742599778168    1.29599873168929   -2.90032524713488
C          -2.06623250942844    3.29534992622517    0.06200137125506
C          -2.15173810002339    4.50467503615799    0.71656320951671
C          -2.17454640361580    5.75555744951551    0.07251451150839
N          -2.15475560663636    6.81125434198173   -0.38093001728841
C          -2.29672451526418    4.64326009411299    2.10880536318910
N          -2.44726829725110    4.80997970211849    3.23559480280269
H           2.23338134604599  -15.21454176611296    2.26074558466291
H           2.16528773226379  -17.00414877478480    0.58507964025155
H           1.46025038180797  -16.54467378850592   -1.72265858584630
H           0.82285946532643  -14.26772895793870   -2.41085078558090
H           0.81141854796955   -9.89531883296885    2.14375653282956
H          -0.03581352387115   -7.82879708443649    1.91105640134954
H          -3.34111120213678   -8.96912130399085   -1.79324082530274
H          -3.70982594213449   -3.38175249806682    0.90962889218146
H          -5.38894704392664   -3.58454074557918   -1.08456278284249
H          -1.59824322903643   -4.17466665972022    2.30987299232891
H          -0.89143054131587   -6.89120121113215    3.53212846115425
H          -0.42025631845561   -3.13882938726730    3.73700604469694
H           0.98973208229669   -5.82160887724557    7.61276560096808
H           0.05692486122209   -6.93670567646658    5.64785492168730
H           3.41350702047336   -4.40800238161840    6.97948745580641
H           5.22899041165540   -5.47215666254261    8.25354629749335
H           5.15186862374433   -5.51682732020009   10.72153682398050
H           3.23657742319507   -4.50326109647166   11.90421973636520
H           1.40964575108454   -3.45664085171068   10.63325647778600
H          -1.30423229765239   -2.68327227996649    7.73319275224450
H          -2.42557113640950   -0.64965534348033    8.53354968950994
H          -1.14800646216413    1.08171637774338    9.74439297084339
H           1.26345043261619    0.74871853882669   10.16578090233200
H           2.39296936899328   -1.27216116794222    9.35385872667276
H           0.06078684288863   -1.17480599839555    4.82776731785793
H           2.45371484710564   -1.47054262384402    6.71633697111834
H           0.72681654036647    0.66051625309431    4.20744860334254
H           4.02072775974694    3.30335212739967    7.03850830210364
H           1.14813726971856    6.18301473034559    2.33012993655828
H           2.86844527636785    7.75848018113791    3.49736609699365
H           0.02294853516972    3.71653944983556    1.87810102346786
H          -1.01429471657007    1.68233831370885    3.92199840844151
H          -2.28448234406816    0.69226628191332    2.28454150275859
H          -2.07041106856577    5.06852150189838   -2.24616302364523
H          -2.53467422804405    4.26188235155485   -4.51926008672225
H          -2.98922770182216    1.88433591299231   -4.94044775303168
H          -2.96548460169538    0.25629669360206   -3.10329100221016
