125
 SCF done       -233.746550283898          0.000801860078
C          -7.58982564206957   -3.96072864433484    7.51431845749037
C          -8.00053132222086   -2.78622976453375    8.12307036836183
C          -8.18361159437162   -1.62436596892986    7.38571813499962
C          -7.95340769804661   -1.60251389788346    6.02021110705324
C          -7.55691296951059   -2.77470309453457    5.39469808592717
C          -7.37776947966570   -3.96072449360358    6.14383096716575
C          -7.00301738768954   -5.03747372964945    5.24391088766623
C          -6.89683887294538   -6.36084132414233    5.55767045311197
C          -7.09780822014902   -6.88580247744190    6.85363886070659
N          -7.25118758353984   -7.37412005277895    7.88023975018862
C          -6.62960008528720   -7.39282411103466    4.62953650365634
N          -6.43927753631229   -8.27976295588392    3.92691289607335
C          -6.79110706103088   -4.42779614910541    3.92582788184766
C          -7.33183523515311   -3.06846161006647    3.99158659374729
C          -7.70713588770794   -2.28366358941419    2.93822622844939
C          -7.75375287805995   -2.70029432130743    1.59119847128097
N          -7.89206085287104   -2.97534886829975    0.48526757396635
C          -8.18374248263786   -0.96148515113984    3.07191579694915
N          -8.54567551340663    0.12705401024347    3.10568475180517
C          -6.02912571353124   -4.97804391140321    2.95845604497629
C          -5.52144919501952   -4.36600651400245    1.73897571038218
C          -4.84964305751818   -3.12988052335288    1.73899687120818
C          -4.58537005484226   -2.42411645531341    3.01542021885087
O          -4.33618893987094   -3.02185550500148    4.04881095690881
C          -4.63682081183067   -0.95905988715074    2.99566254680983
C          -5.28472406609910   -0.14452410264348    2.10267545612964
S          -5.14718524604200    1.50387722812047    2.51382215628881
C          -4.19456263937852    1.11952927034607    3.90304980552166
C          -4.01399587452417   -0.21499254851265    4.04757496588524
C          -3.18236235894922   -0.92781619255899    5.07075732042858
O          -2.05258568834682   -1.26890414042398    4.81390369353011
C          -3.83001283711408   -1.18429199428972    6.37770103074764
C          -4.81670177323912   -0.35072746586682    6.89628005859555
C          -5.33529127408894   -0.59943620290379    8.15347680636812
C          -4.91218207324992   -1.70201219688658    8.87816891956473
C          -3.95224348862278   -2.55207955959617    8.35265300437544
C          -3.39843323825214   -2.28443897581067    7.11612113256958
C          -4.34378416510686   -2.63439627389518    0.54061896447488
C          -4.52376080800349   -3.31362914440261   -0.64561798271436
C          -5.20168634093779   -4.53585393958725   -0.66038627991152
C          -5.67033466136466   -5.05736959210542    0.54507182587394
C          -5.43165906047509   -5.26548011528439   -1.88807725362516
S          -6.73298276617730   -6.40706166816494   -1.98517811282805
C          -6.36567737467425   -6.80070018496571   -3.63178590923227
C          -5.27730071398957   -6.07281526998281   -4.08323427368087
C          -4.74998508136138   -5.19576525810832   -3.08927134746560
C          -3.62413074951353   -4.39527873750959   -3.35589440022116
N          -2.70455067256755   -3.76113697926654   -3.61500173655058
C          -4.74200643397457   -6.12707016915949   -5.38114546413770
N          -4.29838952446169   -6.12765554351463   -6.43904869032987
C          -7.17189142229948   -7.77656038231321   -4.29592167048049
C          -6.90310506840163   -8.34679051370039   -5.48111477241073
C          -7.78071247011006   -9.35366337209418   -6.05590352627024
C          -7.26540341084201  -10.52859118689474   -6.63259285027698
C          -5.80064480046704  -10.76590635305635   -6.60934582863325
O          -5.08187144298911  -10.31046300046160   -5.74494812014105
C          -5.25332661224261  -11.56101634437028   -7.72567790524263
C          -5.63520546805724  -11.45898465325071   -9.03329820166539
S          -4.66189949585980  -12.41097409660148  -10.07244760053706
C          -3.71931269543138  -12.96227705000673   -8.74236620544778
C          -4.13123354654728  -12.43095339574682   -7.56072326282740
C          -3.61511276078272  -12.81572255927225   -6.21617897183503
O          -4.37306398362907  -13.24161844655324   -5.37309913918251
C          -2.15770855808733  -12.68847778603235   -6.00916413243595
C          -1.57707377173779  -13.37984320927927   -4.94566405592773
C          -0.21878979661821  -13.29005166450569   -4.71481442059553
C           0.57035952594392  -12.49715055657772   -5.53383266139457
C          -0.00261811810051  -11.79118404992115   -6.58014427833570
C          -1.36025632910287  -11.88534122825535   -6.82251184013897
C          -8.14028103226775  -11.48724109345412   -7.13604472881658
C          -9.50558798979394  -11.30116222045531   -7.07686399912340
C         -10.03427747209209  -10.14204157695839   -6.50100995169204
C          -9.15661692976091   -9.16822894634562   -6.02641357436728
C         -11.47113856560183   -9.95944105393638   -6.45148860918420
C         -12.18286656290636   -9.31235570936981   -5.50135858368719
C         -13.56737563294324   -8.85358817612618   -5.66555546340734
C         -14.50594679355806   -9.37199664500121   -6.50914449675442
C         -14.30469723667005  -10.49691572102306   -7.34022278812291
N         -14.20622433260606  -11.40989892517173   -8.02784732290292
C         -15.82438407306748   -8.87766581274249   -6.62368589031794
N         -16.90546426959276   -8.52011064005062   -6.76088772373765
C         -13.74555781874728   -7.74612670305340   -4.73908557761639
C         -12.60937811725603   -7.65841467791309   -3.89986357186801
C         -12.52136648266958   -6.67188385478996   -2.93040556277165
C         -13.57063517974879   -5.77499652855987   -2.80339989620197
C         -14.68972659757214   -5.86362275634320   -3.62097304410872
C         -14.79083107879565   -6.84639140829955   -4.59350741617497
C         -11.70413354662072   -8.74287101910434   -4.23672006682346
C         -10.74016408515798   -9.27649684120257   -3.43069233778022
C         -10.28718064909197   -8.66964864299903   -2.24061534244796
N          -9.84193810599873   -8.17809292566168   -1.30409531102761
C         -10.12085782746010  -10.52119195872335   -3.68692278112570
N          -9.65733302058507  -11.56130199227366   -3.81960850867834
H          -7.44796193491780   -4.85313568580786    8.10113037150989
H          -8.18378771431855   -2.77794748052716    9.18645800904809
H          -8.51479632169629   -0.72428044191333    7.88013303792123
H          -8.08576726596922   -0.68930722717441    5.46369365074202
H          -5.70332153452475   -6.00150611127301    3.09449686707507
H          -5.85634113029490   -0.42996256911523    1.24065831823543
H          -3.81174825477820    1.91095922260971    4.51628292898473
H          -5.15550954189253    0.50565048943682    6.33183651702548
H          -6.06995684236278    0.07174201051471    8.57267444584281
H          -5.32788081167059   -1.89578700874466    9.85593610214731
H          -3.62620018448024   -3.41380603872319    8.91566192606100
H          -2.63627812314487   -2.92026916031685    6.69280940404274
H          -3.77936472213554   -1.71464736387521    0.54448511515524
H          -4.14148617858791   -2.89396516021462   -1.56182232582809
H          -6.18462847157179   -6.00772289858397    0.55345991411674
H          -8.03540692090815   -8.10099173483306   -3.72853652228719
H          -5.99807430789563   -8.10110810980925   -6.01552108455952
H          -6.41222503519448  -10.84507555556907   -9.44486929842379
H          -2.92921924329796  -13.66791703034938   -8.90694737842198
H          -2.21301292265676  -13.98570063781572   -4.31749487855148
H           0.22727211544548  -13.83331843721864   -3.89509838617904
H           1.63249934947680  -12.42317571117325   -5.35255382274920
H           0.61237291310809  -11.16273824687347   -7.20710930936575
H          -1.80503192139308  -11.31848714643739   -7.62659636449853
H          -7.74367807644216  -12.40259143080699   -7.54736852552244
H         -10.17519561503560  -12.06406171408850   -7.44326177827649
H          -9.54413852539945   -8.22968322974786   -5.65577883917670
H         -12.00550934059520  -10.34868672767350   -7.30823555336558
H         -11.65489287828868   -6.59006039089980   -2.29398109012602
H         -13.51371166849962   -4.99648363013384   -2.05829744263312
H         -15.49460601250408   -5.15480103598910   -3.50160457413419
H         -15.66388426569866   -6.89754938153480   -5.22320725060574
