121
 SCF done       -230.095694813887          0.000626738783
C          -6.02229141076812   -3.17869463755371    6.64423462678622
C          -5.30909758424065   -4.19537854074057    7.25574116358962
C          -4.29002486953754   -4.85109006828435    6.57921339990846
C          -3.94821122997580   -4.49454957309807    5.28490730363796
C          -4.64329572565700   -3.46741724326233    4.66139587303100
C          -5.69647473343291   -2.81988828839875    5.34291786184109
C          -6.30252461658745   -1.84954418095645    4.45303529403470
C          -7.40986724075805   -1.10314571430136    4.75111824964884
C          -8.04350280139590   -1.08398579529020    6.01530456061721
N          -8.61058115863029   -0.98915671603487    7.00833807795813
C          -8.13493257256939   -0.24827981267440    3.89300939510149
N          -8.81816652152732    0.45247756150819    3.29086361852813
C          -5.56541109752872   -1.89437441038012    3.17988554559840
C          -4.46989087079802   -2.85916928910833    3.34559979363539
C          -3.39479535419537   -3.13291193379543    2.54925903945261
C          -2.94870431170640   -2.56325238924158    1.33912255949529
N          -2.41752100054541   -2.27187221714971    0.36316024083054
C          -2.45082716549277   -4.15555153151456    2.80778422825335
N          -1.66762072212660   -4.99372066555000    2.86583945238517
C          -5.95165134587949   -1.12920920739368    2.12787636017762
C          -5.52719454638047   -1.13979210668157    0.74668627820389
C          -5.49756524458650    0.03179404874020   -0.03920017304226
C          -5.87121273941039    1.38925262600732    0.45196166282733
O          -6.36744195859108    2.20149154678302   -0.29866331329248
C          -5.64717921156988    1.69424529326515    1.88294685980206
C          -6.55502426623928    2.35875519472107    2.65520135870503
S          -6.05210607315069    2.49536121582210    4.28837422630748
C          -4.58236574103478    1.67388184040145    3.93933281559892
C          -4.48234000577722    1.32062149554343    2.62770341941910
C          -3.25747231849727    0.74900335628783    2.01761840724472
O          -2.66465885091008   -0.18353493925845    2.52340523847745
C          -2.83781313295139    1.42083211527185    0.76839069196763
C          -2.06828097028674    0.71749929946343   -0.15775294839891
C          -1.71333886977581    1.30385908279449   -1.35679592921207
C          -2.09150926633992    2.60840023755671   -1.63132830012084
C          -2.81473894223400    3.33139544371637   -0.69563383732025
C          -3.19079053115766    2.74472271337763    0.49699796696155
C          -5.17133181427464   -0.06954999748052   -1.39020646833014
C          -4.85470712553338   -1.28054120728724   -1.96812947466424
C          -4.91090793446606   -2.44813933802061   -1.20563957404378
C          -5.28227337705290   -2.36478424564713    0.13151997004759
C          -4.50080764323345   -3.72366367088783   -1.78187140169512
N          -4.32329773771595   -3.77382412866036   -3.08246948350784
N          -3.94143503684226   -4.84813219546970   -3.72045538812207
C          -3.63440157518551   -5.96516454200137   -3.10485337240345
C          -3.67497052522912   -6.01501268874987   -1.68736186370574
C          -4.18253105767946   -4.87073598173689   -0.99575536743438
N          -4.19240640157157   -5.06274455117023    0.32498671675514
S          -3.59595906833831   -6.52187001300258    0.64284049356332
N          -3.30956382118110   -6.99321433185686   -0.86161569892878
C          -3.18207810496759   -7.09563043789774   -3.91872500902372
C          -3.74565044842875   -8.37775165489330   -3.80259780699725
C          -4.90379141756922   -8.55807115688818   -2.89622231342515
O          -5.56721807048808   -7.62209523323673   -2.50154607929324
C          -5.15500277694254   -9.94250633528567   -2.41159015432535
C          -4.89558447433739  -10.29940489456753   -1.12511806143492
S          -5.22976135417357  -11.95872414106588   -0.82168305783162
C          -5.73142687269466  -12.18437827122404   -2.44146342586335
C          -5.65733818992562  -11.03882975416553   -3.18100934590423
C          -6.05319387304285  -10.96920511296068   -4.61016832980531
O          -5.88672499510825  -11.90730562455381   -5.36119119743225
C          -6.63991251064555   -9.67823952270513   -5.03418820271889
C          -7.51354183678569   -8.97937643608943   -4.20262938649894
C          -8.05039842325213   -7.77752309418548   -4.62148596998579
C          -7.71668575270874   -7.26215317961489   -5.86403397933865
C          -6.86962091346148   -7.96611169337545   -6.70447225251841
C          -6.34077105619364   -9.17587023008958   -6.29867997188307
C          -3.19206622529785   -9.41895714149799   -4.54575579330082
C          -2.15157431485770   -9.19239576834421   -5.42225225722932
C          -1.63980064337089   -7.90421908356842   -5.59755665183149
C          -2.14813896370981   -6.87178175721022   -4.81023243486802
C          -0.55232420753093   -7.66503639954286   -6.52655447076875
C          -0.35887380534889   -6.54915939661185   -7.26282218250350
C           0.90522063236580   -6.17670721461473   -7.91038035262586
C           1.90975410465818   -7.01924949633944   -8.28771673755116
C           1.87046997306026   -8.42579413565341   -8.15913511606447
N           1.89463087823743   -9.57086232896702   -8.09106748811756
C           3.10687337574974   -6.59358319464574   -8.90557153423901
N           4.09784031440812   -6.30841291417217   -9.40771221111039
C           0.86888798700616   -4.73267017538334   -8.08251325385244
C          -0.42583285892710   -4.26193762143752   -7.75958223110837
C          -0.72388776681025   -2.91017483466596   -7.82078505130295
C           0.27490581501282   -2.03215600588494   -8.21214852777018
C           1.54345275855385   -2.49239007610536   -8.54125817870478
C           1.85498836892366   -3.84181408821276   -8.48010442509969
C          -1.26134124025514   -5.40148010788266   -7.42464735264075
C          -2.62212654155450   -5.45640536326076   -7.49790371529459
C          -3.44071883015541   -4.33467635010831   -7.75476858519628
N          -4.13695230866482   -3.45176047002209   -7.97869254373863
C          -3.34573729558778   -6.66755792860159   -7.45684797476152
N          -3.95131134819017   -7.63931839214212   -7.52055653581322
H          -6.81399535477059   -2.68306590357925    7.17990716363727
H          -5.55430548532723   -4.48212133673321    8.26664609027406
H          -3.75152793771336   -5.64974576089315    7.06590743884981
H          -3.15539735030632   -5.02258240552033    4.78464534557854
H          -6.76394211219562   -0.44161892605495    2.32166727659738
H          -7.51610431687047    2.72574120200537    2.35391649018702
H          -3.84458126110398    1.53728972576206    4.70528046478125
H          -1.78604597409946   -0.29942427829241    0.06618213040266
H          -1.13826741835316    0.74182613662284   -2.07690356091872
H          -1.81508934791496    3.06713605242617   -2.56911915273987
H          -3.09242449599359    4.35459212937774   -0.89810312120549
H          -3.73761995571644    3.32662106483911    1.22377544236360
H          -5.15892279367297    0.83858071818982   -1.97449169339105
H          -4.56925322466411   -1.35136283180706   -3.00501263024057
H          -5.40469843067538   -3.27338627663424    0.70043331976943
H          -4.49493816551884   -9.67916366025809   -0.34809561119656
H          -6.08210928854688  -13.14058072717779   -2.77595066507207
H          -7.78302337444658   -9.38403722760656   -3.23740649506099
H          -8.72400457290890   -7.23725936555985   -3.97355509851422
H          -8.12395942533661   -6.31302682867388   -6.17943348765496
H          -6.61643862800641   -7.57152104505837   -7.67614233422929
H          -5.67468243931145   -9.73026075811244   -6.94110333292274
H          -3.58636928915468  -10.41815875445598   -4.45432574777566
H          -1.75163728935511  -10.00682889490504   -6.00649541749090
H          -1.72145398895790   -5.88071875095795   -4.86287211837753
H           0.19497103328761   -8.44644640784069   -6.56699623491031
H          -1.70356851023767   -2.54494121768961   -7.55795675423435
H           0.06201634691814   -0.97529735047108   -8.26030131433962
H           2.30335064607823   -1.78923592637938   -8.84580898737256
H           2.84685373893112   -4.18068229813207   -8.73072740698649
