112
 SCF done       -202.521527909766          0.000346778122
C          -8.93673222711759   -0.27991741171835   -1.75543631191260
C         -10.13294959656486   -0.57229202260105   -2.39539453474188
C         -10.80665858095771   -1.75858277628198   -2.14716095693878
C         -10.30812282607390   -2.68510229703510   -1.24241391436831
C          -9.11563527532716   -2.40357443816558   -0.59967075030266
C          -8.42073994620678   -1.20102747343597   -0.85876837036523
C          -7.19170114293955   -1.18860154292497   -0.07190189936587
C          -6.29240993430635   -0.15304030725290   -0.01366856095154
C          -6.45198697193631    1.07350098052734   -0.69065413584816
N          -6.51310746278386    2.09717132474697   -1.20763569303736
C          -5.09931695515157   -0.13837537551870    0.73603851631316
N          -4.10815809703342   -0.05113173282694    1.31150388313950
C          -7.09883420835411   -2.48234627512164    0.58288157741162
C          -8.37427606176745   -3.14836404367629    0.40678896562272
C          -8.90208205345390   -4.10184952163691    1.24293364285076
C          -8.25920223205137   -4.53598634991735    2.41962825646216
N          -7.78136132388622   -4.86554377223865    3.41080520408231
C         -10.17965237810376   -4.66987109399370    1.08025190992914
N         -11.20438728703016   -5.17898989889638    0.98359004785797
C          -5.95816621462238   -2.96624131195869    1.18536427645883
C          -5.54953337290398   -4.29853778504523    1.39091911017036
C          -4.45838460064440   -4.57013276188599    2.20351333208771
C          -3.92087319268245   -5.82399542545049    2.42202739849712
C          -4.45149625181870   -7.01711905992485    1.75797192939044
C          -5.49073241675882   -6.99753883459128    0.89592264340182
S          -6.34192571578501   -5.57655658218333    0.46191313565599
C          -3.62741740804454   -8.08935931038031    2.19477789715088
C          -2.62840750371495   -7.60923033882203    3.05299717815113
C          -1.80524328777141   -8.66012746514238    3.52456314778549
C          -2.17836593972061   -9.86500283378114    3.02180075016854
S          -3.54410671998996   -9.78541683954038    1.96067098754494
C          -2.79811542000550   -6.19138378818873    3.20862127596218
C          -2.02531727821034   -5.29998566203240    3.98139793439610
C          -0.78783760093984   -5.58068466366796    4.47315599342399
C          -0.01473880601729   -4.70416819269385    5.26435407710491
C           1.31368824789879   -4.90722303601590    5.66533679371434
C           1.80316724130518   -3.79430241725334    6.37707087220756
C           0.84543833052538   -2.76848291105604    6.52773586491147
S          -0.64920310204055   -3.14548925076481    5.76375609940001
C           1.43587549022670   -1.76814581100333    7.30258004057665
C           2.70903826369673   -2.20699439358618    7.60680443257592
N           2.94796616949359   -3.42761066481300    7.04460035897380
C           4.13408932380931   -4.21846906293294    7.25553091050167
C           3.86772820944484   -5.40005691169916    8.18502331838588
C           3.56354035871606   -1.28770599275286    8.40499307320015
C           2.60123430488526   -0.23024482927540    8.96545747518370
S           1.05030462612563   -0.19598653240890    7.95793888035439
C           2.03660912375919   -6.10933942224074    5.28458348538789
C           1.57028993384797   -7.36494444388702    5.56561520214155
C           2.15411009890755   -8.55084842368258    5.10943648048127
C           3.34294574733594   -8.52794101166332    4.26020509766631
C           3.99394547426747   -7.40134188728470    3.89079302017623
S           3.47199433454666   -5.82654175493075    4.32008028633537
C           3.62388569373551   -9.89062609300608    3.96561878389226
C           2.68891482263510  -10.72016795117503    4.58471692746543
C           2.92098603187878  -12.07802273216658    4.27377198494760
C           3.99824463502966  -12.23395146750876    3.45843389291036
S           4.77683789869199  -10.75439112561632    3.03060699441434
C           1.76525423470608   -9.89143545263072    5.33363798534601
C           0.70179028245241  -10.28685356520681    6.15617228624642
C           0.35845784440443  -11.57862034150322    6.46482894450068
C          -0.66723281769729  -11.87802780974635    7.36405497905272
C          -1.09599738258291  -13.14276992927170    7.71785666396062
C          -1.76727736971145  -13.47345497357888    8.96091332167885
C          -2.34314277032983  -12.60667366351981    9.85634459704601
C          -2.41852908255945  -11.20722942834598    9.70923207706723
N          -2.51053087908042  -10.06266672414998    9.66224607924838
C          -2.96277623740169  -13.00506907572655   11.05840230321256
N          -3.47891352885839  -13.25482969516729   12.05340868034294
C          -1.68384359666756  -14.92236999992454    9.11427570883636
C          -1.07552372558672  -15.46774742032793    7.96131069931335
C          -0.84813774777725  -16.82935362724031    7.85929928501677
C          -1.22939370302776  -17.64580086555519    8.91427876126656
C          -1.83517356748548  -17.11428091895348   10.04256539155230
C          -2.07038537127288  -15.75113971042629   10.15442512738464
C          -0.82109510365968  -14.38293652389416    7.02439849268104
C          -0.58989055323888  -14.53342624681375    5.67671468721336
C          -0.31033020678164  -15.76607998528583    5.05535711496405
N          -0.03814642927142  -16.72903086751198    4.49149521412778
C          -0.71176100844278  -13.49654810826837    4.73323067753935
N          -0.84913631560290  -12.70827257746670    3.90834252932766
H          -8.42796452100600    0.64675008513833   -1.96371754538507
H         -10.54065732631471    0.13678422248647   -3.09973741285654
H         -11.73138808511883   -1.96692931542219   -2.66341137901973
H         -10.83654964886601   -3.60670638521887   -1.05910975262114
H          -5.21252141744015   -2.23427691543658    1.46655434555417
H          -4.02064922685610   -3.72080858203614    2.71084593058627
H          -5.86058861895568   -7.88416928978355    0.40565463013492
H          -0.98302143543046   -8.55737426956018    4.20824242916570
H          -1.73222208348268  -10.82211023813804    3.21459756959323
H          -2.44420980295599   -4.32077803643767    4.17259506951869
H          -0.32727769939928   -6.52080059967401    4.21098269053845
H           4.89296202182642   -3.56445909440697    7.68987573778122
H           4.50545940919194   -4.57671510219379    6.29029427015245
H           3.50282873485699   -5.04993546429981    9.14764268172126
H           4.78449382842052   -5.96154625736523    8.34164973074807
H           3.12170858433188   -6.06486316234064    7.75644255995163
H           4.31861045542204   -0.82142876496759    7.76257043708791
H           4.08042030434488   -1.79536991304549    9.22227817849908
H           3.02202395333136    0.77186050834903    8.94994434514493
H           2.29899867843237   -0.47415244813328    9.98382468124918
H           0.69265584021144   -7.42321638312202    6.19606277639042
H           4.88716301004510   -7.41627546177550    3.28708638405636
H           2.33207476666195  -12.91388893028398    4.60164069199439
H           4.39319821534964  -13.15150353567513    3.06833957137243
H           0.10278084217297   -9.49885692652455    6.59660962959447
H           0.94470319034609  -12.38399066349912    6.05482596583117
H          -1.08911437878451  -11.04009080880435    7.90141405827372
H          -0.37515364275873  -17.25400850978460    6.98858936215475
H          -1.05048125516451  -18.70842314819516    8.85261801935624
H          -2.12757361839890  -17.76774803335856   10.85031170723732
H          -2.54186900670798  -15.35777805610934   11.03976281018238
