103
 SCF done       -209.587239835888          0.001226615396
C          -5.20447631388141  -10.24260221892283    0.90109101246770
C          -5.56652335161008  -10.77621483816680   -0.32622475106840
C          -5.99804985516858   -9.96060494254719   -1.36486496139816
C          -6.07208451014694   -8.58437825175378   -1.21005550194698
C          -5.70896752260977   -8.03755202116357    0.00975246985650
C          -5.27926626903769   -8.86803936520550    1.07387228572370
C          -4.97847709282655   -8.03728086142616    2.22840838707827
C          -4.34731864570364   -8.42006686897017    3.37784448292426
C          -3.91599947262469   -9.74287595829675    3.63206090898829
N          -3.54335388143652  -10.79586569576918    3.89036083039872
C          -3.97377064784310   -7.55677499855070    4.43066566271110
N          -3.61302417403638   -6.92362767309897    5.31812893607864
C          -5.45445667773951   -6.69045664526707    1.89979398697714
C          -5.64656301906518   -6.65286681411599    0.44649597643513
C          -5.53907505044515   -5.55388709316562   -0.35104929052768
C          -5.19148397084013   -4.27015787459595    0.12722519978597
N          -4.83415480775152   -3.23282966155576    0.46246348040157
C          -5.64758241759973   -5.59583470385522   -1.75908242200754
N          -5.72304566214055   -5.58573963501481   -2.90300211286601
C          -5.80003317444361   -5.75059904381187    2.81094015672471
C          -6.54218657046440   -4.55617841962478    2.54858804106398
N          -7.44218128980397   -4.46296753714642    1.58799569426381
C          -7.93047658361048   -3.20226898227305    1.66431983112369
C          -7.29100904174161   -2.44747847375160    2.74763749359186
C          -7.81478634993120   -1.06965011178028    2.80038669174217
O          -7.52777535460223   -0.18389340845034    3.57022511637960
C          -8.77882502518291   -1.05346337608380    1.67990348579639
C          -8.82062519186947   -2.38244899692771    1.02064781596198
N          -9.70132008888685   -2.37712060444270   -0.01061123477069
C         -10.19036458094827   -1.16395032945099   -0.03622024545079
C          -9.65480593442989   -0.28324640113107    0.99261321836254
C          -6.40177833406157   -3.31140089597704    3.33929096616173
C          -5.47970476564355   -3.15128770150959    4.40282256126648
C          -5.22847900299525   -1.96992633690182    5.02178306424622
C          -4.29833145229437   -1.83367329826002    6.09263340647271
C          -3.88876518673530   -0.54222021326736    6.51021838857989
C          -2.87605042140380   -0.35143287292353    7.51216000486037
N          -2.60808088657545    0.88600738430228    7.94763400837712
C          -3.14335948130852    1.91401914969838    7.35004905978566
C          -4.03094028137896    1.72624029253702    6.23149526830520
N          -4.41478176265904    0.52575362042334    5.89348103666965
C          -4.54700919527837    2.85114521394663    5.53869880056036
N          -4.93024596428500    3.78825994132917    5.00400330169512
C          -2.90867120386231    3.21933608423922    7.85318650256572
N          -2.74709974536157    4.28991518337245    8.22523786224745
C          -2.18595951896769   -1.44318694487605    8.09922546694758
C          -2.63441244216788   -2.72680260653207    7.74161572469034
C          -3.67892788692367   -2.91521252356934    6.75579321455434
N          -3.91138114819046   -4.21391037719761    6.54337883947272
S          -2.93007329851018   -5.09765807557238    7.43892444088207
N          -2.15240362703148   -3.90118745293151    8.16306622302207
C          -1.03917023396474   -1.13744279990354    8.90276808647974
N          -0.30596601307520   -0.08738293398778    8.57118618370503
C           0.67591717839186   -0.00603284255698    9.48929162591518
C           0.53675065761295   -1.05820464441389   10.50721037088850
C           1.61956328553257   -0.95352856621593   11.50247858129889
O           1.79578708501270   -1.61677578524674   12.50400180585236
C           2.42409903078676    0.16553815767129   10.98953746032428
C           1.80480544704213    0.72528702760637    9.76508042862247
N           2.54175984320344    1.75556726179614    9.28694634893199
C           3.55596651730995    1.86396769758907   10.10934313126874
C           3.54680889767920    0.89932560541689   11.19437820658463
C          -0.55658301920609   -1.80653126255102   10.13559417961765
C          -1.15081668303040   -2.92269687078771   10.78008768031862
C          -0.66896957599717   -3.42557387472088   11.94533753155907
C          -1.23656766717156   -4.55484268356506   12.57947981931826
C          -0.68519772908335   -5.21430597061827   13.63895466283866
C          -1.40191343371865   -6.12187413559956   14.52810909121956
C          -2.54876436423055   -6.81152686889405   14.24136571197565
C          -3.19369062588029   -6.80406281888696   12.98645726874749
N          -3.75445008258969   -6.84749170734425   11.98539713137212
C          -3.20951110801337   -7.66236600702711   15.15294889932755
N          -3.79474500565478   -8.36319405718216   15.84817880628401
C          -0.65299588900745   -6.15630590538071   15.77588890986808
C           0.55787466938619   -5.44453825831950   15.60453614801360
C           1.44919102808532   -5.30718219336194   16.65543294335026
C           1.12832011374316   -5.88463509646839   17.87500751845709
C          -0.05411889128068   -6.59234811787539   18.04215347777054
C          -0.95511700978698   -6.73691218248162   16.99819071105872
C           0.63488191123641   -4.99087901977322   14.22369047301715
C           1.77190219609645   -4.64817019443197   13.54802877217151
C           3.03038055105136   -4.48397612826701   14.16668864844676
N           4.07176401633329   -4.34082811990459   14.62551365959534
C           1.86179563274890   -4.56044025854546   12.13966598031502
N           2.00610036645136   -4.57088730291032   11.00177829277921
H          -4.88065368317381  -10.89058854598242    1.69935075123694
H          -5.51571831376101  -11.84416402103665   -0.47274631740835
H          -6.28165878912176  -10.40286100344744   -2.30741704973843
H          -6.41667792796744   -7.96036178815113   -2.01881225742302
H          -5.55117871613591   -5.92142556791041    3.85056692591866
H         -10.92528795881662   -0.88942563842528   -0.77314538584954
H          -9.92607114846270    0.74393158616570    1.13478381929290
H          -4.93228139140880   -4.02765573590595    4.71899487415402
H          -5.71606701303709   -1.05986188349082    4.69620248453105
H           4.30482907666187    2.62052198135553    9.95087974636228
H           4.28682635888517    0.82095028887033   11.96593687952031
H          -1.97905604950186   -3.40708596546903   10.28551197547087
H           0.16305158272854   -2.92950598293734   12.42397970634235
H          -2.21370804734531   -4.86303131121345   12.23253273044786
H           2.36703799328577   -4.75421083479443   16.53838802739701
H           1.80950064470301   -5.77980038187080   18.70551171123696
H          -0.28077367882423   -7.03459020055002   19.00012833733205
H          -1.87189590057941   -7.28391990255696   17.14614570984484
