135
 SCF done       -220.853606113668          0.000534125946
C          -8.60626930260729   -0.92006563253863    8.17727136080986
C          -8.83720228616422   -1.71827605112977    9.28718490978744
C          -8.23168314021162   -2.96075492832959    9.41528306499689
C          -7.36925726281301   -3.43752895192259    8.44011033846872
C          -7.12775408428484   -2.64749187349509    7.32792643939818
C          -7.75231263922335   -1.38679032987024    7.18969448274454
C          -7.34067521684344   -0.79231164018255    5.92604483776118
C          -7.60204753424143    0.48425222895986    5.51216527132182
C          -8.33783042452989    1.42391741289273    6.26621212092198
N          -8.92792380208173    2.23308163636545    6.82655617904672
C          -7.13882033485382    1.06268713874043    4.31062367236710
N          -6.78890341952935    1.60268281995460    3.35978148822022
C          -6.58904366752596   -1.81957309297859    5.20402940275422
C          -6.26618543724211   -2.86417669447505    6.17645489562974
C          -5.19498774642433   -3.71275772559649    6.13742985259166
C          -4.21063882697991   -3.72524787854361    5.12531980137047
N          -3.33557958721179   -3.74925346625187    4.38353478530776
C          -4.88247260991675   -4.62695643678678    7.16634913840168
N          -4.58841768340186   -5.39836703703485    7.96365699269234
C          -6.36470347015344   -1.81445585492677    3.86466082644681
C          -5.94675633009920   -2.92391177546751    3.04823974568387
C          -6.37876409919962   -4.23474308666991    3.31379708237991
C          -5.93138705430669   -5.26681366115310    2.52894518994623
C          -5.05766879643855   -5.00527751521845    1.45460954926284
C          -4.66442646738773   -3.70869429692309    1.15476725900366
C          -5.12551413542834   -2.67519825816226    1.94094371328913
C          -4.75116377148380   -6.25228595395601    0.79361541739635
C          -5.44392888332807   -7.28440066863942    1.44600546643785
C          -6.22192323026788   -6.74880674454338    2.62933560675449
C          -5.60506327801883   -7.35678365750762    3.91217056267199
C          -6.37902168851324   -7.11906094648242    5.20233919277455
C          -7.72205024631603   -7.05778621850410    2.50443112661785
C          -8.30235954716165   -6.59502758998131    1.17242862376665
C          -5.34483144428349   -8.58251064230065    1.00707203896396
C          -4.54321588165006   -8.86935367634909   -0.10676265975729
C          -3.82843001684958   -7.83555339439979   -0.72598834634534
C          -3.93041511701468   -6.53149266736345   -0.29085925762533
C          -4.41993355525953  -10.22130547053433   -0.59938521885046
S          -2.90662665206536  -10.78898375799321   -1.19467202566316
C          -3.51620807980971  -12.37404767958124   -1.55250213941340
C          -4.86804473629750  -12.46286545306919   -1.20242917600866
C          -5.38078245645919  -11.22928518694020   -0.67670382808115
C          -6.75458321077004  -11.12816227171743   -0.37103654282274
C          -7.55122980183070  -12.22638383167403   -0.49323030756357
S          -9.29316385822410  -12.10672453878520   -0.08740794253759
C          -7.02373368230079  -13.49126461553255   -0.87984168226191
O          -7.81124890755535  -14.59127128490988   -0.90625235659127
C          -5.70850562733792  -13.59250999934909   -1.24991661823489
C          -2.60576948652493  -13.30392733073056   -2.12757143381354
C          -2.90997397390863  -14.40257726589934   -2.84997749763977
C          -1.94201220732803  -15.30599526271045   -3.42439340958052
C          -2.34485740515222  -16.14804243070342   -4.47374669344319
C          -1.43400910810151  -16.99003518109147   -5.06138028357889
C          -0.10569078391301  -17.03677702621164   -4.60102114271458
C           0.29947998333974  -16.22921708026040   -3.54633024647320
C          -0.61555037388028  -15.37262023421625   -2.97263662158813
C           0.62220525430578  -17.99779552451059   -5.39426332588259
C          -0.25188066537223  -18.54207384162846   -6.35387870282844
C          -1.63074302539048  -17.94256842827341   -6.21669390440374
C          -2.68374421742787  -19.01845208523320   -5.89207048772120
C          -2.35689957079739  -19.80544414148594   -4.62855283192998
C          -2.03920198710392  -17.18858866064873   -7.49712380966312
C          -1.05617554398352  -16.08911162232412   -7.87995889311848
C           0.19109405355957  -19.48561678542410   -7.24450373747464
C           1.54262800115951  -19.86927154014054   -7.22682713842934
C           2.39460207540671  -19.34438974623588   -6.24255157384893
C           1.94357933139370  -18.42222306308807   -5.32439840984574
C           1.99738319433172  -20.84090668159941   -8.18435830691860
C           3.23942346012434  -20.95558006864069   -8.72504030867351
C           3.75342250023630  -22.15515754443413   -9.38445316622328
C           3.02471211074610  -23.17689084626045   -9.92821406407425
C           1.61565404940115  -23.22571160906822   -9.99131055610312
N           0.47608697721321  -23.32671083134322  -10.08925055966231
C           3.59377058344250  -24.30602826941031  -10.55527918978164
N           3.99200228590667  -25.24777066744624  -11.07651873000020
C           5.20583748531784  -22.04918070386568   -9.36932431580236
C           5.56679244467379  -20.76408584279740   -8.90309909499582
C           6.89915138590939  -20.40634097475015   -8.77692957247077
C           7.86875259986474  -21.33700382237155   -9.11753632857709
C           7.51689446733429  -22.59695312922783   -9.58172289033961
C           6.18685320549604  -22.96631157717772   -9.71346399319451
C           4.35053958542559  -20.00817723107794   -8.65264019458490
C           4.24829481435208  -18.64464047577096   -8.62260892443279
C           5.35823113730481  -17.77484177934853   -8.63031342020999
N           6.22856303972943  -17.02682348527573   -8.61562057294682
C           3.02494885193682  -17.94426325642102   -8.67590127743808
N           2.07192150027049  -17.31636561905595   -8.79489950757596
H          -9.09096723461517    0.03842561066786    8.09078974725476
H          -9.50278919864057   -1.36675348619609   10.06057863847989
H          -8.43432627024263   -3.56700910372374   10.28483439574026
H          -6.91066110175753   -4.40742303661599    8.54619816013928
H          -6.55590346543396   -0.89600443117294    3.32539731407576
H          -7.09212984508991   -4.40070599951185    4.10828069071958
H          -4.01194995885200   -3.51139954096350    0.31846893954229
H          -4.82162169187075   -1.65944662247928    1.73672489956174
H          -4.59594706218222   -6.94962065384164    4.01843181342085
H          -5.50959852986410   -8.43448263673575    3.76334999083896
H          -6.54949711235687   -6.06052862886536    5.37502603610077
H          -5.80387115087379   -7.50253731495595    6.04228881242780
H          -7.33923558757730   -7.62833119321601    5.18792484943433
H          -8.25808412305688   -6.56158831270113    3.31435395971339
H          -7.86861339540039   -8.13465108984636    2.61175753722104
H          -8.17454557155237   -5.52131705499942    1.05078608254858
H          -9.36505658832807   -6.82235851171287    1.12854930971609
H          -7.80939697182909   -7.09204394389923    0.33983335050683
H          -5.84528577526606   -9.38501998681262    1.52731066396461
H          -3.20068828007393   -8.07480252741723   -1.57215676169685
H          -3.38151292296652   -5.74496570679756   -0.78538011533753
H          -7.17894273506164  -10.18456521427425   -0.06815759006025
H          -9.73973686899412  -12.49959279475097   -1.28520275309198
H          -8.66215076038305  -14.37989730373672   -0.48768063324610
H          -5.33038757881137  -14.55769443332319   -1.53839594132059
H          -1.56475585344005  -13.03056650966843   -2.00895530462484
H          -3.94210094603482  -14.61294239791769   -3.08981363393065
H          -3.36717080930463  -16.10731900112347   -4.82210221321467
H           1.31488975545472  -16.26872859236779   -3.18108600578602
H          -0.30759728934877  -14.75304864121578   -2.14454417293699
H          -2.75559894012619  -19.70407692639665   -6.73866992442669
H          -3.65391611636820  -18.53166912156781   -5.77373092764861
H          -1.40129882234523  -20.31563180235893   -4.72862532369660
H          -3.12651982714562  -20.55109217429733   -4.44327744523615
H          -2.30352237305063  -19.14415670248113   -3.76637001957050
H          -3.02959248763230  -16.75477623727816   -7.34074922876216
H          -2.11478021016077  -17.90770050577023   -8.31509496121271
H          -0.97359427174905  -15.35183692200740   -7.08402775568074
H          -1.39862509180723  -15.58439019790892   -8.78022620126791
H          -0.06943739898356  -16.50071001840253   -8.07374281677407
H          -0.46652049620557  -19.90785847936482   -7.98989853387540
H           3.41295035382484  -19.70246452199419   -6.18199809719976
H           2.60790527080505  -18.03716590770219   -4.56551661114911
H           1.26364534705785  -21.58958153912893   -8.45385265796535
H           7.18303242871332  -19.43279540697261   -8.41096949801954
H           8.91122805286789  -21.07603737623830   -9.01786108776200
H           8.28919826941651  -23.30451824992268   -9.84195694763913
H           5.93228423869378  -23.95088598316518  -10.06996924464502
