118
 SCF done       -217.546367178796          0.000835342128
C         -20.44157337312610   -6.41727310021640   -6.18205770044822
C         -20.54970652739421   -6.97281243180124   -4.91559221576742
C         -19.93266924738694   -8.17610932362571   -4.60492211968900
C         -19.19644442477445   -8.86547313648448   -5.55684312432574
C         -19.08241944026620   -8.32019887945963   -6.82416747066124
C         -19.69957085243189   -7.08882511956665   -7.14080507806692
C         -19.39311947476097   -6.74826759686070   -8.52554440990282
C         -19.90345423217775   -5.68432229927421   -9.22196747860334
C         -20.82265121071607   -4.75663233810583   -8.68843923808240
N         -21.57042975512162   -3.96669806528699   -8.32137435318450
C         -19.62296013979086   -5.38119177898031  -10.57034710095869
N         -19.44487053761143   -5.07471278021095  -11.66303045175183
C         -18.43869967032989   -7.74142531510642   -8.99878871239514
C         -18.42690763466990   -8.82119917033560   -8.02136293190345
C         -18.14646017277792  -10.13633748537419   -8.28307598476954
C         -17.84720268964456  -10.62368674642572   -9.57282116253572
N         -17.65895134001309  -11.06206896878503  -10.61672512911811
C         -18.22349885507069  -11.16344512642853   -7.32187536220152
N         -18.24984805104937  -12.03460290899434   -6.57497275080227
C         -17.63806600850846   -7.59336374953077  -10.10033069323490
C         -16.41740785855943   -8.23559776255295  -10.38920745383939
S         -15.39920147623215   -9.00040766672036   -9.19171858720659
C         -14.18932290969710   -9.36670249532782  -10.37793564546834
C         -14.56490524211403   -8.90074889204211  -11.62941321971384
C         -15.78955966548163   -8.25299051713776  -11.62775328447688
C         -13.00940981370654  -10.06273649017232  -10.02200731824614
C         -11.98964663105669  -10.49730071966681  -10.85035336892799
C         -10.97969519549365  -11.17306659736178  -10.17516880970458
C         -11.19478538861234  -11.26784093006733   -8.81256942451912
S         -12.69211635586128  -10.50534323012718   -8.36720611971249
C         -10.36934174544569  -11.87573828107701   -7.83496468319138
S          -8.90652129084093  -12.70860349528910   -8.27124262976903
C          -8.56642605585347  -13.08821259640295   -6.60495165372246
C          -9.55689420222719  -12.58043266855666   -5.78084863082809
C         -10.56193394495060  -11.90897993218761   -6.46593650383848
C          -7.40226076384707  -13.82649045606323   -6.27784424990923
C          -6.99603277230824  -14.11232856392825   -5.01489870493475
C          -5.83182680001736  -14.86189425294973   -4.73697911004597
S          -5.33652158010154  -15.11582966731802   -3.03555812755030
C          -4.00347615705182  -16.00920114097099   -3.63038975830557
C          -4.03173017186141  -16.05297150331534   -5.03222837683203
N          -5.03800731758003  -15.41617137989522   -5.61368993113851
C          -2.87581471081258  -16.84119964064462   -5.56186238158563
C          -2.18705764719474  -17.23562234627611   -4.28820539631894
C          -2.87506828433834  -16.72565620217972   -3.18178664149937
S          -2.11919091285216  -17.13302004188983   -1.69893732228558
C          -0.86410002492793  -18.00758679204321   -2.56161101001114
C          -1.05765605503329  -17.96038712846897   -3.93505003667153
C           0.16561379710161  -18.62557062142607   -1.80823352467028
C           1.15040317770814  -19.40052084913879   -2.32553016059874
C           2.19476911759551  -19.99100545527578   -1.56713353963200
S           3.33321924097525  -21.04611538722337   -2.35672331443714
C           4.21361689296623  -21.29361105114194   -0.87867636293907
C           3.63310552132258  -20.58435425680037    0.15724334347733
C           2.50743075871765  -19.86279424662869   -0.22549069982072
C           5.36711747295035  -22.11888394119951   -0.83086082670477
C           6.24255030790655  -22.29253873711157    0.22600719787132
C           7.28710851012671  -23.16534980370697   -0.05903118512292
C           7.23512408512045  -23.68930582241188   -1.33638987857858
S           5.85406941443250  -23.07190372392760   -2.20067092297633
C           8.12808000836958  -24.60287912944525   -1.94463434448823
S           9.56609464678621  -25.13470162590955   -1.13344231746636
C          10.01324785781893  -26.14605128639612   -2.48600094994703
C           9.06652983899076  -26.05054392648806   -3.49573711584713
C           8.02273292184337  -25.18919321906889   -3.19677916919919
C          11.22409373066146  -26.86491530746561   -2.44615120509869
C          11.62606842836717  -27.78169978482316   -3.37223445608025
C          12.84648004754025  -28.49067787383764   -3.32626639685992
C          14.02432473454586  -28.10944032368477   -2.73377667902555
C          15.07942225469987  -29.02902788593614   -2.33032160874477
C          15.22782277984169  -30.34280313864024   -2.69245087809241
C          14.39133710771870  -31.05826163538381   -3.57413988187129
N          13.76633119472685  -31.71313100872937   -4.28128411403869
C          16.28253531719859  -31.17022387864385   -2.25258068374948
N          17.10920656746858  -31.90234198751023   -1.93802142366638
C          15.96285976077143  -28.29275744558430   -1.43401605078443
C          15.55540815892345  -26.94047138918249   -1.40164652651682
C          16.21340620630113  -26.02279112151267   -0.59978771570897
C          17.28460482308602  -26.45959813635482    0.16486320181245
C          17.69477738211822  -27.78430602312454    0.12519885165533
C          17.04076367915216  -28.71294878451053   -0.67082417890148
C          14.43898343116380  -26.77508587959100   -2.32062159910867
C          14.06079981898863  -25.58531925586827   -2.88694421902440
C          14.57844125563698  -24.33159134333453   -2.50377377558418
N          14.94741195626762  -23.28017187693291   -2.22690507904500
C          13.16979457597954  -25.45857787311285   -3.97202795616772
N          12.49519424728391  -25.27816231245101   -4.88325961314321
H         -20.92553651564291   -5.48014365834365   -6.40242916438805
H         -21.12196827164834   -6.45580179396897   -4.16050432270825
H         -20.02546897466181   -8.58338385281366   -3.60971702919463
H         -18.71574209778163   -9.79730054218689   -5.30607283853034
H         -17.91425274217495   -6.83517848530038  -10.82209512644374
H         -13.95603384741685   -9.02828358659317  -12.50520627950950
H         -16.24568411827300   -7.82516820550203  -12.50273478587471
H         -11.98982131477209  -10.33258580821323  -11.91213946109718
H         -10.10762934702032  -11.58804237726094  -10.64858020801436
H          -9.54905116838977  -12.70328879230162   -4.71344025244674
H         -11.41455378873322  -11.45083018455149   -5.99592955075549
H          -6.79514003233395  -14.18057842146125   -7.09881502524512
H          -7.55377349593959  -13.76447704360520   -4.15812947116070
H          -2.23639718926939  -16.23677084586662   -6.20774777171225
H          -3.20851355958297  -17.70557560664287   -6.13932995046595
H          -0.39218237407623  -18.42967365947042   -4.63588239381167
H           0.13286034993217  -18.45156887245250   -0.74188475562001
H           1.16724669297874  -19.60416074340468   -3.38673126584999
H           4.01715523427715  -20.59968458183487    1.16103194298338
H           1.93812187418010  -19.25501069903336    0.45373042879608
H           6.12684753116474  -21.79017855006261    1.16866639187802
H           8.06799752634034  -23.42106580285708    0.63533915005638
H           9.15558658208694  -26.57848244058553   -4.42702213697638
H           7.19999231050222  -24.97926986341918   -3.85733450500281
H          11.85456371227674  -26.67830512506375   -1.58501632498061
H          10.93439847955192  -28.07375524452861   -4.14924169638032
H          12.81749444864120  -29.47677698107091   -3.77084508111336
H          15.89898912464830  -24.99271265618959   -0.55546956832773
H          17.80364040963279  -25.75722173964361    0.79900824584744
H          18.53365015141335  -28.10198365640252    0.72543310829968
H          17.37091799268536  -29.73838511788893   -0.68320269352142
