94
 SCF done       -182.383480906618          0.002014971643
C          -9.00558406057053   -9.63880961324511    6.46551825155263
C          -9.58261561258134  -10.77114138601333    5.91155432007466
C          -9.16220815818206  -11.26106852712813    4.68187362980009
C          -8.14950662745898  -10.63578828112339    3.96954604354707
C          -7.56332304498359   -9.50356959881658    4.51115982450484
C          -7.99506170874308   -9.00071018224908    5.76246819678124
C          -7.21399503130933   -7.81952634278263    6.08647925143283
C          -7.15041530096482   -7.17204460417248    7.28819658493586
C          -7.93496516345441   -7.51476952070676    8.41193732555370
N          -8.55436420574401   -7.74099211533378    9.34968432902251
C          -6.23199599026475   -6.13922279371779    7.57764189122647
N          -5.47348525518608   -5.32774757503497    7.86705945895455
C          -6.45746319740789   -7.48102283258136    4.87827334891517
C          -6.48022369488210   -8.66571090173223    4.01915486019393
C          -5.54136824699642   -9.00695302923821    3.09297905732264
C          -4.36666584634602   -8.25647577469635    2.86030688192060
N          -3.35988943700283   -7.72758947754873    2.71136739273586
C          -5.57469371119663  -10.20980158349174    2.35319426409299
N          -5.56101891803121  -11.17643094720971    1.73697585102917
C          -6.02511202247664   -6.22497318932234    4.59472906148463
C          -5.60376946453440   -5.71019538570883    3.33637724894772
N          -5.91759976821090   -6.27859283670466    2.18111436321322
C          -5.52549603206404   -5.41621760709457    1.21927120043010
C          -4.94286421972302   -4.20918000844109    1.80365827682019
C          -4.56345765197817   -3.24327851669934    0.76484249878495
O          -4.10655134835235   -2.13024170501282    0.90651905048187
C          -4.91014110347370   -3.96507165311352   -0.47587687077082
C          -5.49691517700701   -5.28968874682617   -0.14939161665770
N          -5.81556235137356   -5.96223977198504   -1.27948617499883
C          -5.47196659824989   -5.16743826418832   -2.26189462093709
C          -4.89816576363790   -3.90309612944360   -1.82950337995276
C          -4.94503637787596   -4.39470946331424    3.16552434848270
C          -4.40331317036339   -3.50308297236023    4.12278878728305
C          -4.01782286839256   -3.79790593643028    5.39339285177275
C          -3.45011828549237   -2.85586580508102    6.28061361986178
C          -2.77938944790400   -3.12432056107299    7.45564370430664
C          -2.24832733803677   -1.92202462255888    7.98852422963887
C          -2.55319617145558   -0.86011526371309    7.15466922615267
C          -3.44443941610583   -1.38590195149841    6.12370772243340
S          -4.53047412137265   -0.51484216172141    5.26861044092769
C          -2.14338559909944    0.48330905989363    7.35193558409938
N          -1.79326966204666    0.90207601884930    8.56168479114550
C          -1.51305094348103    2.21007046134425    8.43509408500834
C          -1.69434688887377    2.66590597118297    7.04687815412207
C          -1.39224078513795    4.10489320931225    6.92958525167877
O          -1.50282128324252    4.82057451526750    5.96065532019930
C          -0.96759942853681    4.45305524295771    8.29758493138307
C          -1.07335471034062    3.27420394762046    9.18620178867850
N          -0.66600232048277    3.58471399469854   10.43854961812206
C          -0.30868267580589    4.84540319562482   10.38362218524879
C          -0.45872416794617    5.44486852880914    9.07267206873079
C          -2.04751585789424    1.55410537457606    6.32603550451591
C          -2.13588626863112    1.37331749655330    4.91749905973625
C          -2.15847129193048    2.39296450439084    4.02570259643236
C          -2.26793997269375    2.22916006518452    2.61518888767888
C          -1.83247471688379    1.20347539070027    1.82931197383537
C          -2.30683942198288    0.94929601113786    0.46732883986390
C          -3.05092218811115    1.78270340128718   -0.32146925774181
C          -3.46380090596277    3.09437929558453   -0.00026249859894
N          -3.83797445388196    4.16702189690901    0.16475593498114
C          -3.50845188634234    1.44666753593172   -1.61454144436509
N          -3.91717729341365    1.24715296580112   -2.66830067304634
C          -1.87827353578686   -0.39440089989160    0.11159237504082
C          -1.10434706952119   -0.92430515253864    1.16738768675271
C          -0.63001142851388   -2.22482941584300    1.11146497198095
C          -0.90062388480121   -2.98068390457169   -0.01759264814406
C          -1.61965549136139   -2.44563473512103   -1.07690763235223
C          -2.12037252290231   -1.15522263771089   -1.02173203211577
C          -0.92077578060091    0.11169568989647    2.17067298282163
C           0.09560997819469    0.13908219388083    3.08603117634469
C           0.97335577322634   -0.94199692945392    3.31610436004571
N           1.70271835446349   -1.78955525251981    3.57430437490577
C           0.46335859862738    1.24615564929311    3.88110595151720
N           0.87220571400778    2.09504174785059    4.53576285870364
H          -9.34554091184823   -9.26606115991627    7.41825390860500
H         -10.37226175305238  -11.27645968946119    6.44582828053012
H          -9.63229314364120  -12.14078438567861    4.27025170861479
H          -7.83924228959570  -11.01995248051080    3.01139975599905
H          -6.10731802425899   -5.47758095607777    5.37249333476754
H          -5.62874384335065   -5.46695466537177   -3.28343201874323
H          -4.56558174469582   -3.11845922203503   -2.47895166859363
H          -4.23117836091488   -2.50727011389888    3.73530517893517
H          -4.05110027492038   -4.81650541870828    5.75643617369648
H          -2.65438871149160   -4.09859442928083    7.89037915368701
H          -1.66511633674307   -1.83548758246416    8.88651711562113
H           0.05446407842135    5.34531996266301   11.26472607973525
H          -0.21365712655208    6.45664698227703    8.81743908050260
H          -2.17079068471374    0.35371698821328    4.55812459296597
H          -2.19858918268671    3.41072259083823    4.39338021695948
H          -2.82484641367753    3.01786531411248    2.12533294473678
H          -0.07218773174598   -2.65334554648306    1.92823215564108
H          -0.54405504992226   -3.99793960658360   -0.07219997828720
H          -1.80208248403912   -3.04955880550115   -1.95311006907657
H          -2.69430408359823   -0.76338457440171   -1.84437780481187
