117
 SCF done       -226.310844453933          0.000676515671
C         -14.84940919311733   -0.74448766073961    1.75970873801087
C         -16.23327897293728   -0.67266962774211    1.82075993623444
C         -17.01556198742541   -1.81389407115771    1.71729811755905
C         -16.43487496656414   -3.06320561207168    1.55828036556752
C         -15.05387776626720   -3.14694955245053    1.49663071221635
C         -14.25492305436663   -1.98517538896077    1.59128931527293
C         -12.85269275468922   -2.36524269385634    1.46913295585139
C         -11.78105993720746   -1.52509044943071    1.61823926496658
C         -11.88939744695106   -0.15202531229948    1.92627753669636
N         -11.90103941279705    0.96901934359046    2.17298477529283
C         -10.42314158641163   -1.89639459162924    1.52617481884497
N          -9.29776070606159   -2.11929600790517    1.47028876810387
C         -12.82935683986003   -3.78637917594415    1.14405218601930
C         -14.17425501761045   -4.29817552001045    1.36595604030568
C         -14.50878333783133   -5.59062198482656    1.67488645276734
C         -13.57331092170227   -6.63468654276871    1.82602129810319
N         -12.85173903794182   -7.50783849985031    2.01234390957982
C         -15.82075389634603   -6.01479138886115    1.96901211804403
N         -16.87100183478485   -6.42049821533229    2.19241699969829
C         -11.73990701182660   -4.44272109116563    0.63381089627096
C         -11.71392596299577   -5.63987824505953   -0.10953079263506
S         -10.19729718905976   -6.48109162526460   -0.30398483576520
C         -10.92565561434057   -7.65639136708002   -1.34457294198760
C         -12.27001076084015   -7.37575525276777   -1.54669811121043
C         -12.70949153539437   -6.26159959884855   -0.85414249090929
C         -10.18182492583098   -8.73026994528125   -1.88813185758304
C          -8.84802326632235   -9.03649788975690   -1.68954468790552
C          -8.42831461643737  -10.16079492169808   -2.39068215828293
C          -9.43001200989429  -10.74362026517019   -3.14609196209603
S         -10.92722828847756   -9.87413534317035   -2.96928039230658
C          -9.34777089164138  -11.87607273535727   -3.99093827936451
S          -7.85660638500462  -12.74567501781506   -4.20380407208925
C          -8.61105948042960  -13.84959622945803   -5.32554828973246
C          -9.95142841413454  -13.53048948765730   -5.49448655676704
C         -10.36208051633455  -12.43388180499629   -4.75213708627051
C          -7.92177696750650  -14.89897515543115   -5.96779127128990
C          -6.60702972822480  -15.19089059682581   -5.77600885091276
C          -5.85166483132352  -16.21145486922380   -6.41178675192551
C          -6.31352276591303  -17.11200107907521   -7.40743069325511
C          -5.45072711975171  -18.10204539575435   -8.02057803307853
N          -5.95427348947150  -18.92433012040270   -8.95147367077029
C          -7.21187346938192  -18.82964904729007   -9.30730571813196
C          -8.06075074603305  -17.84641455022035   -8.71149165324775
N          -7.59380736463362  -17.03350101315462   -7.79558703924115
C          -9.41883472513179  -17.73132413778398   -9.09715781858685
N         -10.51445412585687  -17.65263134340533   -9.42322756458552
C          -7.71596215229140  -19.71432243642665  -10.29233871945211
N          -8.14982383199233  -20.41447382951295  -11.08869462446762
C          -4.08264821629526  -18.23654025598069   -7.66622051498563
C          -3.63604866762295  -17.35270476170065   -6.65876815062025
C          -4.49162762756731  -16.36784766317943   -6.05225656752629
N          -3.84073074275816  -15.64907348854946   -5.13587773687771
S          -2.32267340627783  -16.15632987076397   -5.04456111089100
N          -2.40072168265842  -17.31117018631788   -6.15985586861399
C          -3.18552144783929  -19.16778177059894   -8.25415698004156
S          -1.53520772466512  -19.26057929131796   -7.69599057713830
C          -1.17566750309286  -20.51474284142287   -8.84628145750045
C          -2.28961515190986  -20.82388982221461   -9.61192972167209
C          -3.40707876441667  -20.07702112241349   -9.28128824032163
C           0.10952011174703  -21.09656634219700   -8.93665118468611
C           1.22555877349160  -20.83989776244038   -8.15958239638464
C           2.33499565922237  -21.59616395214870   -8.51709673348065
C           2.10040804238912  -22.44920044693716   -9.58084352792901
S           0.45764851670274  -22.30565135785836  -10.14048410070314
C           3.00042764653629  -23.34675321315664  -10.20243433990032
S           4.62851334415281  -23.53971124421174   -9.63205397921656
C           4.96877171268987  -24.71793544913228  -10.87081638584617
C           3.85150152242808  -24.92378766670215  -11.66848393057713
C           2.75429048780547  -24.16428326360083  -11.29504250112396
C           6.20958228646785  -25.37549703200645  -10.97856616705910
C           7.28110767876336  -25.15244437462223  -10.16754177889001
C           8.54478524086301  -25.77548471146039  -10.26503028261230
C           8.88554653993905  -26.96962414055427  -10.84721159081302
C          10.24043774247140  -27.30485655861327  -11.27292087005179
C          11.41036007339542  -26.70347195517312  -10.89095756168163
C          11.53584645939605  -25.65066402908371   -9.95994395294120
N          11.72811412840196  -24.80117758485727   -9.21110562145528
C          12.68599373214424  -27.09497507872731  -11.35095784844077
N          13.75378558430195  -27.35775140003805  -11.68045000719831
C          10.12672884278661  -28.42439114376041  -12.19949333326026
C           8.78686159050738  -28.87204846208621  -12.20961850083064
C           8.39771120276626  -29.91830338927182  -13.02956422434906
C           9.35291708801322  -30.51740626749380  -13.83693713046699
C          10.67129875665033  -30.08546423573862  -13.82183188475221
C          11.07224543947685  -29.03785260621544  -13.00602106192780
C           8.02896223162512  -28.07574675836045  -11.25519539427533
C           6.85054966980375  -28.46237775658992  -10.67222251780792
C           6.11736195186862  -29.60216790369298  -11.06120069681972
N           5.46276361427123  -30.50069101839991  -11.34792391969082
C           6.25202636062025  -27.81801133060238   -9.57052814435084
N           5.72916773104910  -27.36449041907814   -8.65486023091587
H         -14.25991992529902    0.15393665963865    1.83742838836384
H         -16.70610243426409    0.28921266043451    1.94726649136591
H         -18.09078189640948   -1.73140012116539    1.75970486558409
H         -17.05240907922999   -3.94265560511901    1.47271898796722
H         -10.77696680124962   -3.96086300107455    0.73972179715955
H         -12.89464632344628   -7.98031227264792   -2.18015069611955
H         -13.71273233821933   -5.87960676499708   -0.92417957031826
H          -8.21340310806293   -8.44859611854874   -1.05042475840614
H          -7.42735346269994  -10.55315540409545   -2.36458852536377
H         -10.59573432527235  -14.09200506656539   -6.14703242278928
H         -11.36189332636491  -12.03678445712544   -4.75412663540797
H          -8.50517547757080  -15.48962501341308   -6.65863855159247
H          -6.03951165594019  -14.59768804460867   -5.06822587673932
H          -2.27195358930591  -21.57471489490399  -10.38240722868963
H          -4.36158462885664  -20.17615671892121   -9.76193820684302
H           1.21116469175978  -20.12158543098622   -7.35947328589733
H           3.29160434448789  -21.53881568361283   -8.02873845563666
H           3.84994966124384  -25.61785064080950  -12.49018774195439
H           1.79917381464579  -24.18981222366439  -11.78906217301836
H           6.28753324594840  -26.08114635436598  -11.79668816870183
H           7.19837587175878  -24.36307920728972   -9.43105704710021
H           9.36158774041463  -25.18386460773179   -9.87236902760933
H           7.37501589284635  -30.25797920884323  -13.05598275066763
H           9.06320010614624  -31.32940221954652  -14.48620659466796
H          11.39857334913883  -30.56729410150263  -14.45721582676448
H          12.09922768845207  -28.71229888413378  -13.01343654505314
