108
 SCF done       -193.652838741641          0.000520793831
C           4.08225875346559  -12.12647851220054    0.14764379728870
C           4.14877620485006  -12.81279831085521    1.35117145139947
C           3.53988645927586  -12.31089532614125    2.49042983651902
C           2.84619468510932  -11.10945062976126    2.45763750624828
C           2.78145156479137  -10.40974650950768    1.26501889168362
C           3.40216359566174  -10.92065313513685    0.10437990107612
C           3.14635491530186  -10.00350899946499   -0.99682333912030
C           3.66654140080324  -10.13223352233570   -2.26308489268916
C           4.47570751088207  -11.20989002479923   -2.67690896977249
N           5.14518428304993  -12.04848499424275   -3.08609937179635
C           3.52501746891302   -9.22411364164865   -3.33134486047599
N           3.49637122659679   -8.52762475794341   -4.24631408396236
C           2.32196457952826   -8.92171251321172   -0.48048251295182
C           2.04255930375902   -9.20485131438819    0.90440701242835
C           1.07496919053883   -8.63325232275487    1.70936198718446
C           0.01000965306832   -7.85714993236886    1.22459277656464
N          -0.91692146038240   -7.28122852465318    0.86368992109930
C           0.98636209104153   -8.82575677334202    3.09698155216497
N           0.90444345058984   -8.86651281169509    4.24393568718789
C           1.92621445715368   -7.88258678061004   -1.31190953551881
C           1.41857548647133   -6.59240481736813   -1.13321565175525
C           1.37920377489679   -5.82165803362286    0.02658481237949
C           0.81790913929979   -4.56462080853893    0.11099996280474
C           0.26202892817340   -3.88179072798475   -1.06062290408146
C           0.22258690918507   -4.40506729220148   -2.30549304611778
S           0.82183608288240   -5.95672303704618   -2.68250689173917
C          -0.17824433252035   -2.62050963994057   -0.58713065026562
C           0.04932213341403   -2.51015705352255    0.79169419495538
C          -0.35676276946527   -1.24334177923016    1.27851003037992
C          -0.87080737323714   -0.46403267598885    0.29359206614631
S          -0.89223935600392   -1.21984118810502   -1.26636482105917
C           0.63026044803057   -3.73648785081528    1.25925629211906
C           0.84387666758300   -4.16700374533224    2.58106252231767
C           0.48267096939193   -3.47440159697198    3.70000614191888
C           0.52646515847545   -3.91811797762716    5.04271618522372
S          -0.47404005928217   -3.02588249409405    6.16813574603902
C          -0.20105158329268   -4.18426784584765    7.40141472907023
C           0.61200212226363   -5.20089730679577    7.00751392343338
C           1.01082741814426   -6.33647162926435    7.88800945259753
C           1.07585402003158   -5.04383200246458    5.66656932021171
C           2.04152542826956   -5.94605483397586    5.10984928513840
C           3.02237983089663   -5.58244622550969    4.25394966494583
C           3.93494073405523   -6.46870698313110    3.61415691526044
C           4.15546581822818   -7.76853674288159    3.92718298450385
C           4.97200750631907   -8.64898470849070    3.15512442524995
C           5.23387950054493   -8.46579170427109    1.81422117207780
C           5.96085335827598   -9.34402156640531    1.02175024073552
C           6.56243172598653  -10.55377711435719    1.57726412471470
C           6.45467072907893  -10.92630099156279    2.87335954683508
S           5.57754804434381  -10.03152089855766    4.03967986727781
C           7.22854916864829  -11.17724513454624    0.48741371685822
C           7.08958489236234  -10.40917757387655   -0.67102021175419
C           7.72094510477072  -11.01929779086042   -1.77745488477079
C           8.30090323946328  -12.20029878843915   -1.43780293591161
S           8.11263705071066  -12.62438525992052    0.22644986642769
C           6.28512634895578   -9.25158113636945   -0.35669612142125
C           5.87323552947469   -8.20208293421179   -1.18574027000495
C           6.31546411451807   -7.95055086326274   -2.46306905840853
C           5.85762687396134   -6.95059135853557   -3.32403051078780
C           5.08095365539346   -5.81726917383327   -3.11174022081415
C           4.28993945217513   -5.21488874293378   -4.17399929469634
C           4.17551597892995   -5.63053626681822   -5.47591560588363
C           4.91781031577395   -6.64775937454316   -6.11411039546164
N           5.49553986275790   -7.41357361284190   -6.74596222379536
C           3.27884328731280   -5.05938492190987   -6.40266697849945
N           2.56499467209118   -4.64872836313129   -7.20332543412704
C           3.56163981587317   -4.09308173801737   -3.59034344334816
C           3.87975903344016   -4.01680737451933   -2.21794415881800
C           3.39140089196602   -2.97978866683223   -1.43868170604207
C           2.58922884878892   -2.01916275131707   -2.03363656939232
C           2.26305424839729   -2.10048935935598   -3.37849217785347
C           2.74331117493388   -3.13529773707125   -4.16783901942407
C           4.85786756137795   -5.05255382924833   -1.91273774896722
C           5.56967522390542   -5.09046844562688   -0.72690170088256
C           5.11941906254751   -4.49939544628590    0.46140553672818
N           4.74742375562689   -4.15288391671311    1.49504507956447
C           6.81218484300162   -5.72205517824720   -0.55209573716580
N           7.85455130991811   -6.16507012568746   -0.35714476837444
H           4.54434730528119  -12.54130043459033   -0.73212546702007
H           4.67755017592933  -13.75256594138369    1.39466242467746
H           3.59766895745150  -12.86186719310394    3.41697720653952
H           2.37140266905803  -10.73863106664898    3.35146542954985
H           2.03820728239444   -8.12200892292356   -2.36323716546206
H           1.86216257316346   -6.23259365214423    0.90392048695716
H          -0.19805223338435   -3.87796667403836   -3.14691884445212
H          -0.26462603934592   -0.89877578430605    2.29176500055682
H          -1.25139298310069    0.53475018005039    0.38154800688516
H           1.24957867253404   -5.16041133596838    2.69700073878218
H           0.00538511568312   -2.51368653019897    3.57198992844249
H          -0.66221612803464   -4.04937170155107    8.36025540716964
H           0.53449522203306   -6.24710249311927    8.86060582624731
H           2.09129861765483   -6.34978186606172    8.02549050062861
H           0.71348203601244   -7.28272293149298    7.43756160468295
H           1.96763655515708   -6.97349647079845    5.44017820093245
H           3.11862232971168   -4.54177248528264    3.97556208082120
H           4.49430172456484   -6.02233318141069    2.80233101811742
H           3.72475775748507   -8.18890349834806    4.82527357078359
H           4.80566735204143   -7.58603252173402    1.35407825702338
H           6.91501614488667  -11.82105811601853    3.26041207474376
H           7.74518484869945  -10.63668794668932   -2.78024183813310
H           8.83819832219016  -12.87122697603292   -2.07842838041707
H           5.10611829430198   -7.55597655260048   -0.77568809273316
H           7.03676781803510   -8.63309098991388   -2.88554911481276
H           6.10727580881410   -7.12947377886894   -4.36199847869090
H           3.63592151203503   -2.89890252179936   -0.39208875999518
H           2.22655875878355   -1.19291229931846   -1.44135727141162
H           1.63841003337271   -1.34049246451333   -3.82288303619588
H           2.49730038395384   -3.16778737871820   -5.21587673669020
