103
 SCF done       -191.910105273732          0.000518694724
C           1.68731818779418    0.85124568287310   -6.98811001969066
C           1.40737853495182    0.61502678479278   -8.32522024320592
C           0.48307429113178   -0.34963916197029   -8.70503869490900
C          -0.19469022177334   -1.10286836843969   -7.75822396210447
C           0.07378176058072   -0.87549513007032   -6.41838058501268
C           1.02206971470277    0.10113830445399   -6.02972182140860
C           1.11904721426868    0.11206854220718   -4.57916312712891
C           1.77411978070988    1.02569779444370   -3.80295221203991
C           2.50529364551185    2.11791093781559   -4.32150007644030
N           3.11367674731669    3.01834185853798   -4.68752895014886
C           1.76319467608888    1.02857833903484   -2.38980353064006
N           1.77751229617414    1.07792869540741   -1.24330362492421
C           0.35205858776093   -1.04385491450263   -4.10582034839159
C          -0.49128613353012   -1.47852451215281   -5.22186673238560
C          -1.69008855042951   -2.11866552845525   -5.12736340486301
C          -2.32160284278889   -2.43295802413505   -3.90242137709446
N          -2.91654498661626   -2.62249300802706   -2.94019143859733
C          -2.49820472309012   -2.43346951226448   -6.24232021906585
N          -3.18945818387528   -2.70157060844750   -7.11693893590932
C           0.56163075807130   -1.65621051540337   -2.91323697519769
C           0.11997682020630   -2.95340029455735   -2.52398867793525
N          -0.22951841116369   -3.88460421592710   -3.39475841813068
C          -0.51252042344935   -4.98487743799145   -2.66361178190028
C          -0.32720816062143   -4.73718564868672   -1.23213948575110
C          -0.66033279816713   -5.94046152976592   -0.45784131774397
O          -0.60930562647533   -6.10734630376390    0.74306078702619
C          -1.06622770897533   -6.90012539904485   -1.50497284081642
C          -0.95009927656674   -6.27421665344225   -2.84072525391895
N          -1.31781526290001   -7.14488837549820   -3.81248416073025
C          -1.65416847039879   -8.24052798675570   -3.18002297103405
C          -1.52313452516034   -8.15543288245636   -1.73371774709368
C           0.08598620116376   -3.42739560132610   -1.12113435012268
C           0.38531587271447   -2.64163088701655    0.01877079919138
C           0.34586118166453   -3.15120755431622    1.27912790940468
C           0.62996425970517   -2.42377957905832    2.45330863151544
C           0.63697470255517   -2.94207810846899    3.75958414215057
C           0.33069383867731   -4.37751744793339    4.05176792387946
C           0.36850587410705   -4.73211365581542    5.53274657247576
C           0.96066018396836   -1.97610667628339    4.69950760937330
C           1.20201997250773   -0.71185858229369    4.16432167736631
S           1.02477733138924   -0.73213553986600    2.43573155032863
C           1.54742128892639    0.48045195828698    4.82996408919552
C           1.74973651449682    0.58104862609142    6.17641792795562
C           2.08742917642259    1.79659381163640    6.80486550619788
N           2.06967614405673    2.97181395960762    6.17254092190117
C           2.36065904377690    3.89923139340539    7.09329450564856
C           2.55679967870573    3.28601532783057    8.41713965920010
C           2.92376079597614    4.28914194456163    9.42863412240300
O           3.17766158720388    4.10063164833185   10.60040994119657
C           2.91203013612407    5.53336094274209    8.64742075339444
C           2.56180059530010    5.25629619465256    7.23410524730660
N           2.57404066269816    6.39611072845460    6.50967463542943
C           2.91162506419653    7.34164904299746    7.35813897308832
C           3.14504897887217    6.87208560060886    8.70428063824567
C           2.41727302389399    1.93988763329447    8.24237694387996
C           2.66337137974757    0.96868788176047    9.25965979343417
C           3.20699672685456   -0.25241001808134    9.08948726728569
C           3.54070108564764   -1.11476060508280   10.18208663254308
C           3.98220617583402   -0.73626202280950   11.40884976244407
C           3.96269807837173   -1.59423977184719   12.59621782984377
C           3.87040384317454   -2.95834304176713   12.62732948928799
C           3.81694845749220   -3.80126498947985   11.49662988305674
N           3.76777959672773   -4.54581067238527   10.62378560536318
C           3.85399458184304   -3.72198515572583   13.81506278330732
N           3.83748815322925   -4.40309742540381   14.73830674825663
C           4.05129136878362   -0.71223615761236   13.74941627461398
C           4.30313171908410    0.60480627198198   13.30128776400464
C           4.38944921390949    1.65570128906231   14.19953919963505
C           4.23990197090884    1.38125872534044   15.55018698192294
C           4.01295490862746    0.08554246055287   15.99574271305571
C           3.91283546990491   -0.97180257145979   15.10502442242571
C           4.44238540403538    0.58568927207496   11.85455671584229
C           5.12425532028073    1.51393045007976   11.12251915255884
C           5.69643766797354    2.68301424078897   11.67447983607160
N           6.21791601697000    3.62350827893497   12.07192680176673
C           5.44453999360414    1.38526765357387    9.75441125611934
N           5.78063745472419    1.32164463372286    8.65892034557019
H           2.41409059522160    1.59692923522151   -6.70981425717340
H           1.92165338804142    1.18802219003550   -9.08128958997472
H           0.28929583554995   -0.51889475233863   -9.75303181853839
H          -0.90275895561979   -1.85578363509295   -8.06395959768827
H           1.20245685198641   -1.16271370011908   -2.19610343723283
H          -1.98944964304773   -9.10379015371410   -3.72806129745723
H          -1.74953994530502   -8.94216216726549   -1.04167673842631
H           0.64959638659626   -1.60222353677443   -0.12785924499756
H           0.08143594485890   -4.19221204397338    1.41170795619582
H           1.04647296244591   -5.00488191142282    3.51323352015988
H          -0.65762516944071   -4.61484091078828    3.64873732994044
H           1.35838754054079   -4.56223849147958    5.94981734409620
H           0.12441092723454   -5.78344487161769    5.66044658831898
H          -0.35726625177665   -4.14562410213739    6.09152490412633
H           1.01996452893457   -2.16948110163902    5.75389269102236
H           1.67345695865722    1.37561190945426    4.23658503691939
H           1.64596486999927   -0.28656917408161    6.81040576302787
H           2.99350450226823    8.36216132332277    7.02641945222728
H           3.43585021650269    7.48001130161889    9.53791151652259
H           2.47445291285507    1.32490272331407   10.26619661937149
H           3.38266142096279   -0.64428200382345    8.09728237076677
H           3.37549836594134   -2.16942445650369   10.00477514237255
H           4.54892827997215    2.66571171003916   13.85850947260263
H           4.29854018669117    2.18825522145685   16.26426633695666
H           3.90334738076970   -0.10368114538539   17.05264265926481
H           3.72225650294103   -1.96846229076487   15.46790583550574
