123
 SCF done       -229.501050354730          0.000429817221
C          -8.53872506940563   -9.66285382864981    3.41542378398832
C          -8.06196796133557  -10.85941655135006    2.90440095100420
C          -7.02343576300485  -10.88302813479727    1.98322061521571
C          -6.43049811801580   -9.70835741669989    1.55087917537465
C          -6.90479340053724   -8.50341744663886    2.04541185977316
C          -7.96315696330036   -8.47707227251517    2.98240491410387
C          -8.28775894424549   -7.09389351532041    3.29487581749719
C          -9.20720922920346   -6.66722934147350    4.21198401751379
C          -9.93683609975190   -7.53408206339198    5.05679871046287
N         -10.55835942297389   -8.17933422205252    5.77314894259346
C          -9.57991813616839   -5.32662606712159    4.45724692877163
N          -9.97322804461616   -4.27250577082433    4.68736381533558
C          -7.48712484782438   -6.26044384636790    2.39111133558985
C          -6.49592028561833   -7.13736227861255    1.76550533375185
C          -5.30873773054954   -6.75736348337846    1.20707536419329
C          -4.81659009782693   -5.43420661220778    1.13130094380715
N          -4.31273944649156   -4.40646729218577    1.06201193581215
C          -4.36954669170540   -7.66548946852717    0.67650791050034
N          -3.57455961360158   -8.34743566635140    0.20719641238980
C          -7.74809359696343   -4.95461465789226    2.14365614225772
C          -7.34233423329236   -4.14929147364066    1.01490004093407
C          -7.21138885964078   -2.76044884119387    1.16059489718463
C          -7.29728862005952   -2.15524115310148    2.53043763193714
O          -6.36787326195012   -2.18790493024389    3.30301483717339
C          -8.60773106178550   -1.58222287323393    2.86952555731222
C          -9.78554213352216   -1.96916035250312    2.28532055740605
S         -11.15224645131244   -1.28592595149929    3.04678575281256
C         -10.15437435282882   -0.45271374121158    4.16897943815012
C          -8.83039869555610   -0.68289575824826    3.96288874698916
C          -7.75677089965153   -0.01755206184192    4.74862817423426
O          -7.82052099087788    0.09975973740010    5.95135096449383
C          -6.63524761017076    0.51901224635831    3.94111347270066
C          -5.37452045617788    0.60929949770038    4.52511989992239
C          -4.30181590543062    1.08150408690921    3.79377103254298
C          -4.48255411475857    1.48798319245093    2.48179432173948
C          -5.74115103554892    1.42982597848429    1.90433340269269
C          -6.81505468259337    0.94366730995134    2.62597549080037
C          -6.91867432120837   -1.98067472261055    0.05317188992741
C          -6.78649593266479   -2.54972378702813   -1.20125006433391
C          -6.94195450060202   -3.92632549664518   -1.37256750499484
C          -7.20849111205845   -4.70672681462186   -0.25397111407031
C          -6.81968397256888   -4.59459951018281   -2.67048226740539
C          -7.54278881080297   -5.73381600166022   -2.95038871317406
C          -7.37257728896877   -6.47151365200170   -4.12488868846384
C          -6.46122689692042   -6.12249462286997   -5.09800614806508
C          -5.76243840610475   -4.90047067331020   -4.90293085045968
C          -5.94744330105107   -4.13500881301752   -3.69170739627522
N          -5.25325103600122   -2.99929887791189   -3.65422918634287
Se         -4.35980495410181   -2.81454034795126   -5.12754358559493
N          -4.91871268875864   -4.33724932756709   -5.77112877020936
C          -6.38125523312329   -6.92245750813883   -6.32205518373391
C          -6.66710057462882   -8.29917606439024   -6.31895908003685
C          -6.63140699222078   -9.12293118332536   -5.07581792050509
O          -7.49802945360508   -9.92154569486441   -4.78068466665222
C          -5.41024510808057   -8.98558049527861   -4.26949348839046
C          -4.30517781529603   -8.22012650936090   -4.54532337750140
S          -3.07422119002418   -8.40397785542591   -3.38006853419015
C          -4.01247990930604   -9.56144024768169   -2.51557971559742
C          -5.22632630819471   -9.76651186278386   -3.08292646680871
C          -6.21314744238978  -10.78354973792404   -2.60302066331488
O          -6.02633965855505  -11.96126897562367   -2.80149723677699
C          -7.36158493179768  -10.28057216050307   -1.81061510837696
C          -7.48971013613046   -8.94591632855757   -1.43502032066865
C          -8.56592453534905   -8.55404732760073   -0.65964240052133
C          -9.51287434254677   -9.47795562220985   -0.24880666393223
C          -9.38931907193058  -10.80673107894712   -0.61989247499224
C          -8.32075020924286  -11.20448672117650   -1.39816481041669
C          -6.89078083488917   -8.95108080114935   -7.52829374357361
C          -6.80520929491139   -8.27555155001125   -8.72782305498838
C          -6.41551302254270   -6.92852936934780   -8.75460493374963
C          -6.16269114160391   -6.29409257479789   -7.53890496227317
C          -6.26359910503125   -6.27474677632955  -10.03176539922081
C          -6.13535433736387   -4.96148082191640  -10.35124988154858
C          -5.63514569620165   -4.51805081205113  -11.66013213536681
C          -5.76956135240048   -5.16839518287648  -12.85189409247737
C          -6.47718952688797   -6.37850386540845  -13.03330535898144
N          -7.04671100280443   -7.35052256429745  -13.25045371984789
C          -5.26344401010617   -4.68098456464143  -14.07745805671873
N          -4.87546584488252   -4.33519593179450  -15.10000438653130
C          -4.99164342371251   -3.23163963236928  -11.44159253194937
C          -5.26983857976703   -2.79913005490861  -10.12358380493056
C          -4.75941949856900   -1.59957843811582   -9.65227560356456
C          -3.97112260520171   -0.83779429346213  -10.50028779110227
C          -3.70334781261032   -1.25736321596304  -11.79684741491180
C          -4.20951775019766   -2.45366557066545  -12.28152383107751
C          -6.15090881397910   -3.76968794287603   -9.49825289319732
C          -6.98108245622561   -3.52757838288831   -8.43769562945180
C          -6.78722881073912   -2.47382438850582   -7.52925095596619
N          -6.56084468534938   -1.72485071700709   -6.68574124114250
C          -8.05820094624706   -4.37389583196388   -8.08856813537760
N          -8.97774506280665   -4.99908467034902   -7.80977007455518
H          -9.34624954294745   -9.66476160825436    4.12882412774748
H          -8.50856118289443  -11.78668489270043    3.22844602179867
H          -6.67352233676633  -11.82633378129092    1.59383662757530
H          -5.63119031533616   -9.74009778757037    0.82920174271906
H          -8.43130909173511   -4.45378824653227    2.81633650929113
H          -9.91699821889118   -2.64602215555168    1.46316823001518
H         -10.59295920894321    0.18337424444248    4.91191921420111
H          -5.25418821406929    0.28325760508087    5.54684726077083
H          -3.32208465433168    1.13193840766476    4.24477402511134
H          -3.64414663638866    1.85438406044720    1.90789042426670
H          -5.88343433660028    1.76496401266760    0.88658434209669
H          -7.79796051145582    0.91423859888093    2.17526685002550
H          -6.78805850931085   -0.91651051202814    0.17948068680456
H          -6.56647097284513   -1.93210909995234   -2.05617373000725
H          -7.32340108447139   -5.77376342446957   -0.36661580365843
H          -8.29798792828658   -6.07084115201892   -2.25805472707682
H          -8.00195263244972   -7.33526690402570   -4.27270352558670
H          -4.14311145493891   -7.56580546186180   -5.37882442781722
H          -3.60890908092856  -10.00582046241974   -1.62845635813325
H          -6.74750489759325   -8.22293639575542   -1.74636306610090
H          -8.68049075916115   -7.51997419042096   -0.36395582731172
H         -10.34735376611266   -9.15924918610920    0.35873216956102
H         -10.12896270687173  -11.52669305064429   -0.30390840849386
H          -8.20379226113152  -12.23249508371375   -1.70609203330621
H          -7.13281516050303  -10.00322912176860   -7.50945621386448
H          -7.02813580781003   -8.78623669270100   -9.65244587848842
H          -5.76439001825848   -5.29682710993805   -7.51088182943576
H          -6.18014159926116   -6.97101751465019  -10.85758591403723
H          -4.95415113782398   -1.26803999356067   -8.64507858378028
H          -3.55975593544806    0.09478041786389  -10.14565228834361
H          -3.08860541016620   -0.64554133221311  -12.43890367685664
H          -3.98765004736314   -2.76720118800849  -13.28839492382370
