123
 SCF done       -217.365218539228          0.000783621250
C         -11.68447429828829   -2.37602161114385    3.21703816771466
C         -11.63896169572666   -3.34829103950324    4.20549299523869
C         -11.82069804456470   -4.68954065015464    3.90087958763998
C         -12.06426209488613   -5.09705126728800    2.59774374575730
C         -12.11269399892353   -4.13484969105919    1.60357929488358
C         -11.91565389839876   -2.76903601056508    1.90835640039131
C         -11.99456252787693   -1.99289191837736    0.67573372290201
C         -11.93369209134735   -0.62632261190651    0.58464729778963
C         -11.79876540321516    0.23652161906342    1.69230369880754
N         -11.69015059600519    0.99875557838178    2.54402179645458
C         -12.02648829669331    0.12053998515691   -0.60770887300323
N         -12.09262762187601    0.79731713783713   -1.53372309174209
C         -12.11321125540061   -2.94941806188924   -0.41453544280525
C         -12.39082951389014   -4.24776816865872    0.18073062060127
C         -13.07641015687549   -5.27377681246110   -0.41608291022592
C         -13.64018585514639   -5.18361755598842   -1.70595249661204
N         -14.16344920664835   -5.12536476923369   -2.72617669032784
C         -13.38501448743093   -6.49079171946262    0.22247819763164
N         -13.64847368519746   -7.50661442660044    0.68779484082366
C         -11.88820306113834   -2.65904970063268   -1.73606258258547
C         -11.51483420700971   -3.53088393497953   -2.77559775247963
S         -10.79542696918200   -5.10635167478551   -2.53278606111610
C         -10.57099587579418   -5.32502718317153   -4.23766300908085
C         -11.03163455177410   -4.22235891751158   -4.94414285132131
C         -11.53295199688722   -3.22117289377510   -4.13028851106032
C          -9.97566350548972   -6.50100506101072   -4.75023153587773
C          -9.74113822715125   -6.83311633857046   -6.07340458525434
C          -9.12572767614220   -8.06864429445319   -6.23229009024449
C          -8.86950405565124   -8.71556269546702   -5.03678038031638
S          -9.41738624944521   -7.76539961468124   -3.68832456039238
C          -8.23823835890507   -9.96721586118321   -4.83969097945292
S          -7.66231593207420  -10.91060029083314   -6.18389975684309
C          -7.05674835774065  -12.14957778695050   -5.12011938344487
C          -7.31041193913257  -11.82080646292753   -3.79963776696286
C          -7.96864457422845  -10.60642142789703   -3.64414846183212
C          -6.40488472404484  -13.28168469160201   -5.67148800203012
C          -5.84232772080765  -14.28337588461105   -4.95219633169607
C          -5.18462635673119  -15.40112292285220   -5.52217735290955
S          -5.07125780797431  -15.61786973614942   -7.24403333820051
C          -4.18218397165915  -17.10733105537198   -7.05696063948351
C          -3.97147468247041  -17.39017228512376   -5.71252962810722
C          -4.54730857988508  -16.43942971445667   -4.85544018237066
C          -4.45544175461516  -16.52954258381607   -3.36290591172819
C          -3.99027282702413  -17.91375754394914   -2.92157325713878
C          -2.76180967094886  -18.34048528266049   -3.73743464034813
N          -2.11064762565001  -19.54998328480355   -3.26850211486503
C          -3.18164044705619  -18.54894265518857   -5.19506804034996
C          -3.81747947080868  -17.78467974291765   -8.25047839290859
C          -3.35835597854483  -19.05413793360895   -8.36939018177400
C          -3.01546887027851  -19.66544810971607   -9.60574405496474
S          -2.53931483271717  -21.34012350652768   -9.61576410405346
C          -2.31254588227057  -21.32340360501113  -11.33880612555767
C          -2.59375888329821  -20.07064537289726  -11.85338985375475
C          -2.98570345490603  -19.14847328641788  -10.88846582055155
C          -1.89972679175290  -22.48573988778854  -12.03995127848177
C          -1.66064702233159  -22.62387344984039  -13.39588316398710
C          -1.27407704931969  -23.90833452146305  -13.76241021788028
C          -1.20718626714771  -24.78927443113276  -12.69765702283122
S          -1.63386129789104  -23.98919691135883  -11.21150014421978
C          -0.85900512173465  -26.16220967622496  -12.71808887062323
S          -0.83219784949887  -27.10976956344367  -11.26767177722428
C          -0.35563020217574  -28.54041615326313  -12.14710565794601
C          -0.23181735185008  -28.25558190659131  -13.50023551108115
C          -0.50972531396840  -26.93597853892064  -13.81741991737544
C          -0.12924377196298  -29.73965048993764  -11.44524830876299
C           0.16315806957589  -30.94492889091163  -12.01420578549943
C           0.36374635456003  -32.14788816740900  -11.30517610588131
C           0.75052071200655  -32.32093689794414   -9.99844031645419
C           0.49059724538813  -33.52656888373851   -9.22339592375132
C           0.09874952245646  -34.75470061686865   -9.69016364543908
C          -0.09242606146690  -35.10678038204264  -11.04236663742778
N          -0.27110808835522  -35.48078351147974  -12.11384946206785
C          -0.13774603101735  -35.87513027331773   -8.86607990104023
N          -0.34426771568978  -36.82986535498915   -8.26261442088632
C           0.70686010582066  -33.18450468302739   -7.82252638997049
C           1.22271150116370  -31.87163105470711   -7.74911980672875
C           1.49009155829642  -31.28447741757883   -6.52375174647968
C           1.24639329997580  -32.01672322829061   -5.37149348361979
C           0.75212465177939  -33.31101767467869   -5.44124032647376
C           0.47686031359840  -33.90758177685755   -6.66284091807161
C           1.39676310366812  -31.37009029712944   -9.10465681413111
C           2.24481843338244  -30.35277230612553   -9.45948683831250
C           2.92354183277199  -29.53501138445804   -8.53363113283022
N           3.49025460626819  -28.82507168012648   -7.83147145369898
C           2.61105238414404  -30.03840161165900  -10.78370982746511
N           2.98846524780226  -29.75535538953434  -11.83038245190371
H         -11.53844657760740   -1.33988279960279    3.47397306729404
H         -11.45619435483768   -3.05270065978293    5.22736114570262
H         -11.77300537811972   -5.42781189751209    4.68682560963153
H         -12.19984370898421   -6.14182203459382    2.36907125264756
H         -11.91150856441276   -1.61715682901919   -2.02915751938626
H         -10.99079536636092   -4.15927854335756   -6.01574040535269
H         -11.93163261159386   -2.29128682515883   -4.49501530125850
H         -10.01369031822244   -6.19357383177712   -6.89267770154537
H          -8.86416379431442   -8.49695757726904   -7.18359838828432
H          -7.02558476537136  -12.44793363701901   -2.97475517912779
H          -8.24887850222168  -10.18606421471384   -2.69407360468102
H          -6.35361916204360  -13.32514537152934   -6.75182416929988
H          -5.87169144717384  -14.24948956892623   -3.87274359023544
H          -5.42601002065872  -16.30340765330543   -2.91461155499745
H          -3.74512130136461  -15.77561334280563   -3.00675380343673
H          -4.79192008974697  -18.64157859159418   -3.07380172773823
H          -3.74735492078588  -17.89613374066997   -1.85619683918219
H          -2.01403495600349  -17.53911728815631   -3.69310871669492
H          -2.77024878677680  -20.32116399924311   -3.24478452881167
H          -1.74927826679523  -19.42239504501934   -2.33003611552924
H          -3.78412251389292  -19.46200003420666   -5.25444032370455
H          -2.28818631626358  -18.69980860839611   -5.80302126419269
H          -3.96851030422521  -17.20701147741952   -9.15300877867703
H          -3.25658118960634  -19.68446398556130   -7.50100949949588
H          -2.51634042094180  -19.83957346990128  -12.90027047945410
H          -3.23776873810854  -18.12899250881280  -11.11660329783213
H          -1.76444669056769  -21.81281743397095  -14.09300167513246
H          -1.04782362900896  -24.19459820282803  -14.77319578640055
H           0.06656877880763  -28.99085826549774  -14.22454365434073
H          -0.45974887820116  -26.53823403840382  -14.81444575258951
H          -0.23938103190139  -29.67978022474391  -10.36931570233291
H           0.14535249228112  -31.02727709624500  -13.09135475743066
H           0.11599076358140  -33.04381354201779  -11.85925114975872
H           1.86674982873632  -30.27673557673392   -6.45697424619446
H           1.44370499825689  -31.57016038469541   -4.40890277599046
H           0.57309292867602  -33.86435939769795   -4.53199753184188
H           0.08714361694210  -34.91142995821167   -6.69561461535728
