115
 SCF done       -203.677884850193          0.000546455908
C          -3.89082564401869   -9.70316085715857    7.87299960757745
C          -3.15072859617858   -9.05077220616690    8.84918039717413
C          -2.52661524275172   -7.84063193733867    8.58695828999304
C          -2.65664925135140   -7.22678412962170    7.35047978240001
C          -3.41113028800009   -7.85852407432126    6.37728418394616
C          -4.00468253542105   -9.11636091217075    6.62369627178452
C          -4.65515413872479   -9.57479911221938    5.40021043393381
C          -5.36355227846876  -10.74136176642978    5.26716296714883
C          -5.56755153892203  -11.67011217851472    6.30980695129762
N          -5.75817983208845  -12.48625297884908    7.09431947183626
C          -5.99483133178767  -11.19529447829870    4.09113488596673
N          -6.53438020105672  -11.63434819679876    3.17675542566083
C          -4.36098895067637   -8.59395734729425    4.36533641600030
C          -3.77042567517172   -7.44115651599099    5.03057185618997
C          -3.81380898998724   -6.12683364176699    4.62576552479074
C          -4.41996593411185   -5.67433997319055    3.43739760920052
N          -4.94437081668886   -5.23945755277329    2.51258315701279
C          -3.34611022853334   -5.05388541253745    5.40363808825024
N          -2.97773560034911   -4.13009193619243    5.98085831446212
C          -4.56476585358695   -8.79876172744772    3.01703225786426
C          -3.92916631089681   -8.10813982717653    1.96540661280444
C          -2.72920097699952   -7.43784590498224    2.11913732423497
C          -2.17055718830416   -6.59266362950379    1.18251014429414
C          -2.79291610986977   -6.35871930170135   -0.12436556514825
C          -3.88485204411017   -7.03330368553036   -0.55280805783440
S          -4.74732038633258   -8.16444283077740    0.40310924962437
C          -2.04294251385021   -5.29894391071170   -0.69935006432200
C          -1.06656124384836   -4.85400896274620    0.20857297666741
C          -0.31955231693286   -3.76776422233470   -0.30307184298700
C          -0.73220298775815   -3.42361977103788   -1.54874411721726
S          -2.03961750414210   -4.39181822029268   -2.15458528335582
C          -1.11406365186313   -5.67156715203564    1.37526682999897
C          -0.43033630561532   -5.55573619203712    2.61221539763818
C          -0.04851764237689   -4.40391184523475    3.21247930394845
C           0.30741414422539   -4.38597424843573    4.58761901185448
S           0.84542392615936   -5.82793014632196    5.39671329873858
C           0.63013999514732   -5.09871176483943    6.96483129135921
C           0.15150817498940   -3.79850995367896    6.84246775336049
C           0.05510407012386   -3.37689295708855    5.50541248095836
C          -0.29630607474965   -1.96542809525810    5.13000433463913
N           0.36822629324271   -1.58071173994674    3.89190005845883
C           0.05321749464584   -1.06220358103967    6.32308551562711
C          -0.70486765348875   -1.53398419192367    7.55236928240029
C          -0.28384055863348   -2.94561729316715    8.00491931196329
N          -1.37460000245461   -3.63482509749051    8.69222012910737
C           1.00284952777342   -5.89159002251150    8.08467178203813
C           0.50396307761601   -5.78079146968882    9.33717379880740
C           0.86643834518392   -6.60918786893230   10.43637110316370
C          -0.00257281106774   -6.77947940451693   11.49373643965959
C           0.22579632863772   -7.62070248865824   12.57443307560333
C           1.54490805874273   -8.20110294545012   12.82192431281771
C           2.55166338431523   -8.16646838660980   11.91839401425342
S           2.41710104158681   -7.42763585118366   10.37532716103327
C           1.46603878759071   -8.77261976570766   14.12488153459844
C           0.17916540997087   -8.60881974204196   14.63829736480839
C           0.03987578602059   -9.17966660576033   15.92067437009219
C           1.20192715020422   -9.74556128496583   16.34286632866905
S           2.49953194993583   -9.61963351999668   15.20592185684389
C          -0.63530289292330   -7.94082210660261   13.65343015840599
C          -2.02179358568323   -7.75357384780413   13.70540401063236
C          -2.81238344699109   -7.63122640538477   12.58473930176461
C          -4.20020685330897   -7.47364971875607   12.54390479381864
C          -5.04453775596087   -7.00621513671830   13.53408952986167
C          -6.45318360656460   -7.33258969864954   13.62674632642825
C          -7.24640175668745   -7.90226577554709   12.65912554493854
C          -6.83628242904131   -8.23728052310515   11.35350713389152
N          -6.57658777739830   -8.52906459478650   10.27195747100307
C          -8.61589001701971   -8.18625648452340   12.83138441374172
N          -9.73400722017367   -8.43896970832451   12.90341861002029
C          -6.88901915147858   -6.94540874743405   14.96548098752192
C          -5.82379424103477   -6.28094603571192   15.61401034402073
C          -5.96136651879991   -5.82219869835031   16.91226395288751
C          -7.16877982577719   -6.03073149189298   17.56349490842593
C          -8.21838396308929   -6.67518552950309   16.92687110187065
C          -8.09181836204026   -7.13727916547141   15.62416203794056
C          -4.70929980700982   -6.18983935096061   14.68098999641411
C          -3.68451762532868   -5.27422699684353   14.75533890729440
C          -3.44200490794472   -4.44975710846094   15.86870150990270
N          -3.18038869469895   -3.77103632719906   16.75814881283853
C          -2.82068049448959   -4.98979152987953   13.68321666753958
N          -2.13412668138700   -4.67397475029027   12.81682332259058
H          -4.36212114664568  -10.64514574208279    8.09704766508136
H          -3.05594160630985   -9.50575262327781    9.82377053911261
H          -1.92969814599724   -7.35692962600068    9.34473979168011
H          -2.16027862268334   -6.28852235468615    7.16299380666858
H          -5.25128500750025   -9.58017445798761    2.72233193143922
H          -2.22206164635675   -7.56444059357294    3.06611384121744
H          -4.32200647463369   -6.87338708347413   -1.52591413897192
H           0.47843604125301   -3.27466600480165    0.22108289450998
H          -0.34788968533401   -2.64360459251872   -2.17664318421323
H          -0.36215659374677   -6.46820441296841    3.19486798683600
H          -0.17473747988754   -3.44324846307448    2.73653096384015
H          -1.37756478546699   -1.90943217055110    4.94164992123314
H           1.37572037516063   -1.60278120754310    4.01728464658042
H           0.10754818596609   -0.63271941471945    3.64297799524579
H          -0.21567876415283   -0.02865175174857    6.09138006865528
H           1.13157574026431   -1.10275262206773    6.50464850375054
H          -1.77051340295841   -1.55729930014769    7.30745032482487
H          -0.56477097103272   -0.83491382748651    8.37942373081088
H           0.55049652379857   -2.87649990174877    8.71812085005709
H          -2.14090858092117   -3.77940466725138    8.03934748066773
H          -1.71841603815343   -3.06528392634676    9.45852936025111
H           1.70029946179478   -6.69237242674214    7.86169347836470
H          -0.30503209238173   -5.07822101422234    9.50623143759735
H          -0.91197099980373   -6.19402979052991   11.47913696043030
H           3.50988866085566   -8.62862922872534   12.09472249058283
H          -0.86183240711745   -9.17056518848616   16.50568459255604
H           1.38875506328272  -10.24386357779129   17.27395010467964
H          -2.49511806207836   -7.82644710094605   14.67736975497881
H          -2.34113948357991   -7.81436970037015   11.62994773237039
H          -4.67050305694633   -7.82426820239335   11.63516237730901
H          -5.14979350265283   -5.32365687233348   17.41765686463033
H          -7.28895546154125   -5.68616996168614   18.57936068400598
H          -9.15031205268169   -6.82429369308270   17.45069862240691
H          -8.91872209248838   -7.63743795130355   15.14766967677010
