109
 SCF done       -201.258561860601          0.000823415858
C         -19.03473993797371   -4.51903195788314   -1.25654037432270
C         -19.73430624559280   -5.65802659985563   -0.88582572977887
C         -19.38432137643753   -6.90688335520313   -1.37879396980897
C         -18.32836225836436   -7.05188302247625   -2.26610299478651
C         -17.62338634527648   -5.92160931628701   -2.64305630074191
C         -17.97020822043732   -4.64943683848026   -2.13436294969816
C         -17.05243871922562   -3.65561633894653   -2.67924160683828
C         -17.13789356277633   -2.30023493774484   -2.49678566787106
C         -18.15547010961509   -1.66397668149981   -1.75505897939679
N         -18.95213741098031   -1.07909193805897   -1.17104259726502
C         -16.25956471851718   -1.34316405178486   -3.04563478247768
N         -15.58803201597523   -0.50648976383645   -3.45630552301117
C         -16.03879605196287   -4.38727534671460   -3.42655647529089
C         -16.52034944361093   -5.75336977922222   -3.57547364091406
C         -16.21419524114354   -6.60388731210048   -4.60528508203710
C         -15.39126381029117   -6.24514587403851   -5.69342576122287
N         -14.77987056620604   -5.96264507092181   -6.62300651230015
C         -16.76587473775708   -7.89184807608403   -4.75237179324964
N         -17.16472929250292   -8.95741734849213   -4.90559528140326
C         -14.82974591882239   -3.87328455407905   -3.81368495975286
C         -13.64371823231722   -4.56184093610967   -4.13856674752558
S         -13.26685896634998   -6.18889691797798   -3.61407822132072
C         -11.70745937071667   -6.12174680472763   -4.37234568629399
C         -11.50378116796994   -4.89440943552871   -4.98202240753994
C         -12.56695968174201   -4.02011977325915   -4.82658483309721
C         -10.82504030521675   -7.22624270563721   -4.34010609896037
C         -10.95576024636160   -8.42002346932204   -3.65718123525594
C          -9.90081502050194   -9.30146869533730   -3.87366947890550
C          -8.94333862962180   -8.80965277484784   -4.73978380047874
S          -9.35275001706448   -7.20552669607773   -5.27346792222134
C          -7.77775586560074   -9.44936877994248   -5.23136139137046
S          -7.25672396432017  -11.00306108877601   -4.64261245039056
C          -5.92488009457957  -11.03806587817165   -5.76573619166584
C          -5.90614422812462   -9.88689420198172   -6.52917818200526
C          -6.93393707045750   -8.99938809767576   -6.22650007731283
C          -5.04678700796549  -12.16011462498578   -5.80916351103990
C          -4.19547772309321  -12.37854720137669   -6.83706067430746
C          -3.25263364429026  -13.42745711016768   -7.01148456111936
O          -2.63319722805921  -13.47103866270329   -8.22592796017519
C          -1.76768077592509  -14.48719937573829   -8.21427935211586
C          -1.78225637202924  -15.13182549649439   -7.01741398004569
C          -2.74461981574406  -14.45658426249508   -6.21969189120405
N          -3.08785852158358  -14.77410810834523   -4.92269727850986
C          -2.24989274440215  -15.41917922483851   -4.05674612723868
S          -2.89919861008977  -16.33819150658393   -2.72592007484788
C          -1.28638649398772  -16.77363934494852   -2.19945885896328
C          -0.34251599410875  -16.22165411807730   -3.03230890647810
C          -0.87698125623851  -15.45803855291324   -4.07376646796934
C          -1.06557892162230  -17.59753836703720   -1.06745090279452
C          -1.98610367707789  -18.19410002586369   -0.22941465378994
C          -1.40421529238068  -18.96162584048830    0.77699494966139
C          -0.02446617243694  -18.97146759098030    0.73537713583178
S           0.55929775183182  -17.99628376848090   -0.58935524538575
C           0.88983845388962  -19.64141040480389    1.58155430276930
S           0.36461460155334  -20.65701665340947    2.88568330189516
C           2.01532485058126  -21.02873799016784    3.32662979375550
C           2.89963754328495  -20.37462015171569    2.47975296607453
C           2.27512015413629  -19.60738358390481    1.51117356249294
C           2.27702687433824  -21.91801384817807    4.38616928502251
C           3.52189934156420  -22.21048381784146    4.86501367716319
C           3.81440980767965  -23.08388416784598    5.93190583292026
C           3.07262074095258  -24.12231141589496    6.44107820107045
C           3.24998145100967  -24.66110326110284    7.78305545751753
C           4.30767165066876  -24.46426201531238    8.63304620936947
C           5.47238157778547  -23.71918159637134    8.35448472141840
N           6.45276131468755  -23.13627822961072    8.21634360368848
C           4.40101344430835  -25.02843828997846    9.92285609830895
N           4.55041704297322  -25.45322368628538   10.97908351085390
C           2.06910688581149  -25.46412591219041    8.07693027058199
C           1.27188302288519  -25.54256424405384    6.91363920690205
C           0.06988329811976  -26.23011815941035    6.92611082415949
C          -0.32989807617129  -26.84397568541363    8.10373631750603
C           0.45703890822145  -26.77820948764805    9.24418607937531
C           1.66099946995625  -26.08947230121819    9.24432695939011
C           1.95501098173815  -24.83479682296597    5.83990209714260
C           1.73353247307480  -25.04242987949978    4.50260404908517
C           0.68233837104085  -25.82986127525796    3.99122925959281
N          -0.16260697329170  -26.44036289590770    3.50972269976849
C           2.56548298287066  -24.57005435887969    3.46795421587970
N           3.21704297542936  -24.25597724757518    2.57636939243801
H         -19.32053963357417   -3.55855335125282   -0.86057794941164
H         -20.56282619058601   -5.56775575414091   -0.20002965004755
H         -19.93992483289765   -7.77893412626767   -1.06940031888569
H         -18.06018668318056   -8.02658905460463   -2.64064708771035
H         -14.72215942876751   -2.79592654210245   -3.81612525097477
H         -10.59717867538410   -4.66181086760471   -5.51163184409840
H         -12.59174553610032   -3.02264915574990   -5.22758637079329
H         -11.80025127085919   -8.63116332004544   -3.02495186694969
H          -9.82892837755364  -10.27957213235238   -3.43214671940210
H          -5.15722884132177   -9.68790926272232   -7.27330144136053
H          -7.08021218294130   -8.05332402700817   -6.71749260036660
H          -5.11872270315439  -12.84852313357378   -4.98010031920766
H          -4.20752903866839  -11.69108221630454   -7.67156635165035
H          -1.20200212793326  -14.66348013452073   -9.10766054916071
H          -1.20983661630432  -15.99173392868361   -6.74017294367176
H          -4.03083329803547  -14.58890506479819   -4.61947235379789
H           0.71200579003545  -16.36537932077060   -2.87694185379532
H          -0.28094065573952  -14.92739959302001   -4.79225958543361
H          -3.04680513228666  -18.07052467769030   -0.35903235276246
H          -1.95993901509723  -19.50396721305636    1.52147763117325
H           3.96606380820157  -20.47333528815963    2.56265933417325
H           2.79363886544263  -19.03457135222121    0.76258301637855
H           1.40917935693812  -22.35929140316489    4.86030566345170
H           4.36459048155022  -21.66282656129615    4.46789818477685
H           4.73554069705232  -22.85575051925423    6.45237237564064
H          -0.55384752690211  -26.28200733729756    6.04854760862655
H          -1.26718258365751  -27.37848161551062    8.13028238446282
H           0.12853155344756  -27.26613881969552   10.14914595276467
H           2.25514798251294  -26.04474924101001   10.14190742321278
