119
 SCF done       -219.191254481868          0.000500101040
C         -13.17960429146220   -5.83199448506309    5.95644936324291
C         -14.07544690893572   -5.79039783546344    4.89807314507645
C         -13.64064529571800   -5.90385396464578    3.58542688280566
C         -12.29347741138884   -6.05420542998724    3.29171681637497
C         -11.39104626144231   -6.09879485548118    4.34042568258794
C         -11.83141762247801   -5.99287635436922    5.67922750793999
C         -10.67762331460859   -6.09397680559134    6.56587412666992
C         -10.69258746138457   -5.92132588054972    7.92530289579726
C         -11.84907842741462   -5.61102362488095    8.67094929262639
N         -12.74805347550394   -5.35882444052502    9.33890070300185
C          -9.56427614701840   -5.98531118280396    8.76870941924178
N          -8.69186213594418   -6.01981487837149    9.51515132397581
C          -9.53455168824057   -6.42447843588892    5.72659999968942
C          -9.94081605610537   -6.20587158286072    4.34624725707027
C          -9.11081250661984   -5.85762699645043    3.31325182699784
C          -7.72783173506527   -5.63095214914325    3.47606434145360
N          -6.61383410058049   -5.37864891252796    3.59049650089366
C          -9.55522382413130   -5.58505495336139    2.00467870815909
N          -9.86200621141023   -5.37502241049749    0.91852513953655
C          -8.36164029014843   -6.96164205621123    6.18909171560971
C          -7.40296215859811   -7.72658786499242    5.49821656869404
S          -7.68072338911297   -8.53827100454836    3.97448194836116
C          -6.10915185188953   -9.26865023206535    4.01601029135102
C          -5.42122013844970   -8.89994732627715    5.16411533120845
C          -6.14765113020303   -8.06176498856160    5.99196161868130
C          -5.66545455867459  -10.11877573620329    2.97622780423165
C          -4.46603857156722  -10.80579550132274    2.89668896406170
C          -4.33523234354118  -11.55600011156397    1.73541927399170
C          -5.42852718536065  -11.46415157253161    0.89222902009181
S          -6.64395680718124  -10.41898475493199    1.56541812679799
C          -5.61267688622147  -12.10317232480254   -0.35705055524268
S          -4.40528475216743  -13.18063848937866   -0.99527946754634
C          -5.36191716213696  -13.49289041517414   -2.41936947224412
C          -6.54876094172066  -12.77990634151211   -2.36981791046766
C          -6.68698201784827  -12.00753982780867   -1.22292137158653
C          -4.86190766960191  -14.39267912995423   -3.39192856628566
C          -5.48194514223004  -14.69072066043486   -4.56497010072457
C          -5.03609461269588  -15.59843193704958   -5.55196550530268
S          -5.72239177191476  -15.46289997257237   -7.13925169086712
C          -4.75996714987910  -16.74906305375428   -7.79401240283086
C          -3.90122189591978  -17.26101499871363   -6.80414667739686
C          -4.08602211594667  -16.63669614471629   -5.52870384221292
C          -3.38222625310710  -17.14166649838627   -4.42028696841192
C          -2.45761674526329  -18.13225952312459   -4.59507487836110
S          -1.55676829719551  -18.75405925763276   -3.17998834523699
C          -2.14699355582807  -18.63555468908151   -5.88563342458196
O          -1.15246060638619  -19.53258990903793   -6.06727753958496
C          -2.88630423472354  -18.22076841356283   -6.96470836427187
C          -4.95538967513981  -17.10439593234331   -9.14868418998097
C          -4.61864574098224  -18.28812640740088   -9.72572481994361
C          -4.78345999087949  -18.59298929982820  -11.09936106648028
S          -4.41510268264377  -20.20414562895488  -11.65612120468854
C          -4.78398674083812  -19.77544833114331  -13.30106453553590
C          -5.17309769790778  -18.45144755200148  -13.38432694603403
C          -5.17638342622032  -17.79369644475400  -12.15964919089292
C          -4.65496583549769  -20.72067598754499  -14.34762566310285
C          -4.33847574955586  -22.06244833162832  -14.24528838400941
C          -4.27503406281554  -22.71266952158475  -15.47230534505815
C          -4.53402805590581  -21.88356140572401  -16.54922460408212
S          -4.87649789222441  -20.26221602294008  -16.01069625144950
C          -4.52083406508002  -22.21808981852847  -17.92565581486377
S          -4.74290372991935  -21.02059716034024  -19.15851788100653
C          -4.55504110767150  -22.20943334041793  -20.42294721310222
C          -4.33983411987044  -23.46636276422123  -19.87398383598623
C          -4.31979112493509  -23.47172531513163  -18.48908219433940
C          -4.64974415059084  -21.81106669937239  -21.77029845366392
C          -4.44961375708695  -22.62789681983729  -22.84507007226241
C          -4.49217968796701  -22.23183661554597  -24.19794096762470
C          -5.10665846864616  -21.14571170887413  -24.77209625553198
C          -4.71737828265156  -20.58418168526248  -26.05954216360515
C          -3.94123743186467  -21.16621115756354  -27.02803035653379
C          -3.39167205398132  -22.46452976331653  -26.98446660893948
N          -2.91104389378235  -23.50669182097966  -27.03680267976738
C          -3.61116995976971  -20.54854302864572  -28.25294773675639
N          -3.30084710846986  -20.11026245964762  -29.26769054075799
C          -5.30735305784625  -19.25312196340466  -26.13646056775618
C          -6.15403454445135  -19.06631545003087  -25.02144257119036
C          -6.82249879315854  -17.86801216151041  -24.83460109452282
C          -6.64553064140720  -16.85843259987696  -25.76889796877836
C          -5.82295191846787  -17.04332634688554  -26.87048309446871
C          -5.14633763192603  -18.23824535425210  -27.06628465584737
C          -6.15779518826154  -20.29272551689102  -24.23662747839375
C          -7.14425531381799  -20.65586289551006  -23.35626869381207
C          -8.19739354267137  -19.80680769540757  -22.96020866944098
N          -9.06814242456055  -19.15888855967519  -22.58572606810776
C          -7.28107922597468  -21.93989624576362  -22.79194342711856
N          -7.47318341693895  -22.97227732279329  -22.32812247753643
H         -13.53734334133520   -5.74488953977743    6.96910734876505
H         -15.12827785790283   -5.67048277587793    5.10334346599297
H         -14.35862616953663   -5.87546281145797    2.78004309391354
H         -11.96424657134818   -6.14688487692222    2.26929849372371
H          -8.16143011158621   -6.87607754414333    7.24968699174280
H          -4.42436217464123   -9.23732519623094    5.37945571889193
H          -5.78128225785003   -7.67107882564837    6.92466998270488
H          -3.71481083244288  -10.75946458398746    3.66342300856183
H          -3.47477297170080  -12.15528946371302    1.49582677094753
H          -7.29142173858302  -12.82473089409990   -3.14520463353148
H          -7.53993461919606  -11.38728897711123   -1.00938398292754
H          -3.90158086965909  -14.82814972761018   -3.16354456384036
H          -6.38749811950046  -14.15446741026624   -4.81746626452730
H          -3.58310068488038  -16.78220323304353   -3.42577334784926
H          -1.83325344386408  -20.04443941882316   -3.39910391321819
H          -0.63357358527447  -19.60417969389812   -5.24951643201680
H          -2.63532401247006  -18.61539637716692   -7.93345633576825
H          -5.47207996782776  -16.36547452644135   -9.74730587158485
H          -4.22233845233261  -19.08688174058777   -9.11769889569058
H          -5.44339178847913  -17.99251832506468  -14.31928339660796
H          -5.44620363324168  -16.75989085541439  -12.04437592652533
H          -4.16194953472020  -22.54005686020963  -13.29782199015269
H          -4.03939159246139  -23.75534478476869  -15.58093024135517
H          -4.21150898161867  -24.34928840445242  -20.47250106562459
H          -4.17007422883411  -24.35648941073704  -17.89790687125236
H          -4.85376307062109  -20.76041643672773  -21.93508025379314
H          -4.13241607343651  -23.64508984069543  -22.66554911365555
H          -3.89429065650573  -22.84614890931362  -24.85863577638843
H          -7.45766380059905  -17.70953726491626  -23.97825933344500
H          -7.15467938461856  -15.91649878039257  -25.63320171292606
H          -5.70129956257445  -16.24503901463554  -27.58662946617031
H          -4.50670260678871  -18.35997244577793  -27.92459825656858
