124
 SCF done       -202.728266491528          0.000873187790
C         -13.17994115726069    1.17862580595922   -4.06227906091786
C         -14.54744467281970    0.97213794469472   -3.96482070836212
C         -15.06046605635062   -0.12852231298365   -3.29193476329948
C         -14.21969681156624   -1.05266255054828   -2.69116212431618
C         -12.85094664082109   -0.85827882193365   -2.78266788596745
C         -12.32600279300190    0.25880553911919   -3.47318720097739
C         -10.87200605876861    0.20591314048267   -3.42181840011142
C         -10.01042063344073    1.19291895034375   -3.81037414460220
C         -10.42011063285789    2.42872901030009   -4.35577397171149
N         -10.69089090651301    3.45109180680312   -4.80101227345628
C          -8.60699051841917    1.14088214773697   -3.66460120977931
N          -7.46448391332863    1.16885806489065   -3.55789897688367
C         -10.52236136790280   -1.09508855283114   -2.85007886229460
C         -11.74235263185698   -1.62612434300842   -2.24035216030644
C         -11.80345245635223   -2.48836725319850   -1.18147026302747
C         -10.66958151459747   -2.97485456308129   -0.49560080359014
N          -9.79205691263190   -3.33419570850916    0.15071139026996
C         -13.00970177908897   -2.91439132150444   -0.58764635679026
N         -13.96563987377102   -3.30689731668475   -0.08857202155827
C          -9.32672262832309   -1.71692931989559   -3.00419849493674
C          -9.03795493243723   -3.11021761749560   -2.77060490859991
C          -7.77609703977944   -3.45924525013173   -2.26630528369158
C          -7.50596985090179   -4.77554469566105   -1.98341382021151
C          -8.44186324043861   -5.77600185290989   -2.30669631564512
C          -9.66767931630900   -5.44477016120058   -2.86865682514494
C          -9.96715419273429   -4.11495154832103   -3.07323245729482
C          -7.86494309861046   -7.06558792486699   -1.99638293593119
C          -6.58150290282864   -6.85875444221121   -1.46606375280858
C          -6.27802057678885   -5.38299293482218   -1.35071506551951
C          -4.97939379339242   -5.00675804377659   -2.07786073249077
C          -4.99107018352402   -5.41420187944421   -3.54666831581062
C          -6.20289435862846   -5.05141558847758    0.16020881448199
C          -6.18037226138722   -3.57040608626805    0.51186287848325
C          -5.79210621151686   -7.91996480782319   -1.09583530957664
C          -6.27344783150523   -9.22195754112573   -1.27397851302921
C          -7.55835776225452   -9.41968576440255   -1.79727685746019
C          -8.35775718912264   -8.35363255227190   -2.15479304903315
C          -5.46827318736347  -10.37717049424207   -0.93196340214833
O          -6.03315904131983  -11.60236485533732   -1.03345344272739
C          -5.11946230022993  -12.51947186951495   -0.68190335484892
C          -3.94256973765452  -11.92540164696365   -0.35784380732486
C          -4.15436706833544  -10.53287718953027   -0.52458152141262
S          -2.90881331199097   -9.34207724896958   -0.15598201788913
C          -2.48221411070325   -8.63060195918956   -1.72119634272085
C          -1.40273265764418   -7.74439270490662   -1.70521593147843
C          -1.00765444264690   -7.16267163555978   -2.88488400520667
C          -1.69237523792130   -7.44429351851736   -4.08133744678778
C          -2.76638105264049   -8.32103478953606   -4.08742514455230
C          -3.15527513712222   -8.91807366099168   -2.90273464948373
C          -1.06218760241986   -6.70851127138482   -5.15285147643651
C           0.01926414870904   -5.98147792243338   -4.62198859577158
C           0.15043188616887   -6.22717128648712   -3.13813459670231
C           0.03191862895677   -4.91973315175606   -2.33412781429241
C          -1.25385406770397   -4.15831976465934   -2.62674969149826
C           1.49149943225966   -6.91122924867710   -2.80435231152277
C           1.69882125519091   -8.22108545528795   -3.55498654267612
C           0.79735179766667   -5.19728779841847   -5.43381843933051
C           0.47465256536301   -5.08313158175383   -6.79627559830091
C          -0.58354705145749   -5.84184018255510   -7.31935582812524
C          -1.34595947724475   -6.65690922975021   -6.51166774736066
C           1.28884507351835   -4.23601261233071   -7.62503917162686
C           0.91836040919141   -3.54502608223025   -8.73516121471815
C           1.85143896534192   -3.01457366618165   -9.72881262472329
C           3.18627591588911   -2.76779617102244   -9.56205350746301
C           3.90262461696222   -2.93516289404866   -8.35741693074627
N           4.54803210819157   -3.03590505531348   -7.41309286749122
C           4.02843760564539   -2.25824928307285  -10.57382176631604
N           4.76738077350248   -1.85087196096194  -11.35161769960474
C           1.08196922821441   -2.78720623548881  -10.94367695870186
C          -0.28914468897755   -2.98714038612293  -10.66228790093546
C          -1.24158376424406   -2.84820881020638  -11.65891879536053
C          -0.81961298523755   -2.50902265737907  -12.93518496898083
C           0.52525358483195   -2.30529517567192  -13.21183238064407
C           1.48791002575074   -2.44081413220285  -12.22329725437049
C          -0.42870036604102   -3.30394441274277   -9.25011226893047
C          -1.56731310167088   -3.15447091385923   -8.50729365313506
C          -2.83104930466448   -2.85840197015697   -9.05949128024880
N          -3.88533704687793   -2.64546508878391   -9.45951305511637
C          -1.61424068210440   -3.19640144576343   -7.09767571093059
N          -1.71829636568109   -3.14315559176870   -5.95592293591876
H         -12.79857752884857    2.03552064761886   -4.59300392930899
H         -15.22190829672007    1.67897111002926   -4.42336633356701
H         -16.12894219427177   -0.26982349736866   -3.23569181033694
H         -14.62811280428899   -1.90761096730988   -2.17675577320470
H          -8.49658072152589   -1.13501546203140   -3.38332052649649
H          -7.05562845318749   -2.68012323605744   -2.07218393999625
H         -10.37682606442319   -6.21238008298947   -3.13952960268165
H         -10.91318031978501   -3.84218559171736   -3.52026291731991
H          -4.14735302928029   -5.50187951208108   -1.57226311352374
H          -4.82417952253730   -3.92996736244473   -2.00820472936540
H          -5.08941734814727   -6.49342760987383   -3.64496126132879
H          -4.06550086894372   -5.10840683937854   -4.02922938962330
H          -5.82130163095649   -4.94310440595587   -4.06848638735144
H          -5.30653586938821   -5.53409814028408    0.55616777632096
H          -7.06892048972246   -5.50617370488899    0.64679894248920
H          -5.38264168027156   -3.04631885992827   -0.00810242176622
H          -6.01389021812397   -3.46135138217247    1.58119733671680
H          -7.13328976444776   -3.10662882406022    0.27345242490715
H          -4.81919419732914   -7.75151181077982   -0.66668931379823
H          -7.91896806943453  -10.42937782823128   -1.92011539136549
H          -9.34633855425666   -8.52324556593262   -2.55418123083244
H          -5.42285798973192  -13.54713467316761   -0.70552260482155
H          -3.03279746567173  -12.39119056151676   -0.04137553498539
H          -0.89569909068242   -7.54401518057426   -0.77329360995421
H          -3.29383233685182   -8.54554083378829   -5.00216929141507
H          -3.98036645469753   -9.61318584000379   -2.89993691468154
H           0.89059719112999   -4.28802058855235   -2.56964089823865
H           0.07915284649520   -5.16328883881370   -1.27033098614622
H          -1.30768832578786   -3.87074115680838   -3.67325561390549
H          -1.29787167167614   -3.25659318837630   -2.02073800998326
H          -2.11916783436385   -4.77251147983644   -2.39297278034949
H           1.52537531305202   -7.10139140397933   -1.72985166614038
H           2.30272534147091   -6.22251398368597   -3.04807555293812
H           0.91607618609793   -8.93516657995132   -3.30859911880234
H           2.65830307960538   -8.65623446428449   -3.28573207921632
H           1.68620942158780   -8.05615162960506   -4.63027014615299
H           1.62798378900899   -4.63083662885134   -5.03959309977458
H          -0.77666860657771   -5.81439917235266   -8.38271459810579
H          -2.14995655071175   -7.24306593063484   -6.93050062868427
H           2.33206174150705   -4.19612360275700   -7.33947244514953
H          -2.28804408832380   -3.01006843953222  -11.45690696660188
H          -1.54923344356217   -2.40354048891260  -13.72340658713528
H           0.83025242504192   -2.04044053576891  -14.21262226174470
H           2.52804461828952   -2.28473451601663  -12.45751361561041
