150
 SCF done       -260.094910513403          0.000966017680
C          -5.92058492792927  -12.92940213013958    2.25721855313636
C          -6.84083934102532  -13.29736318898698    3.22513422381749
C          -7.67710294933353  -12.35636635489772    3.80967489245045
C          -7.60025383086277  -11.01754028093268    3.46180668102418
C          -6.67840770508180  -10.63226669690072    2.50105587694810
C          -5.84744103675936  -11.59626578616967    1.88266276366596
C          -5.03403118204268  -10.94028878632812    0.87590983436533
C          -4.24957159909132  -11.55046652430182   -0.06131052394459
C          -4.06603339438238  -12.94792317799324   -0.15141577165229
N          -3.88015871056708  -14.07265830580841   -0.28179409037244
C          -3.56390534526685  -10.88736213410267   -1.10305054037940
N          -3.00293078864930  -10.42028389195869   -1.98948900178320
C          -5.25914064240821   -9.49821090204252    1.02872705020074
C          -6.41974664486974   -9.33618678936942    1.90237933189059
C          -7.19213870665741   -8.21523642949648    2.03238378167388
C          -7.09338052336040   -7.08346479402988    1.19705538148356
N          -7.11962137552854   -6.16387645933282    0.51032729927691
C          -8.21936602411388   -8.07710161037950    2.98821080737236
N          -9.02680004449088   -7.88598283520480    3.78172073451059
C          -4.37139666809411   -8.57556035137134    0.59920642104641
C          -4.26173443999160   -7.14668274514116    0.83343635808277
C          -4.40038363419023   -6.53633288912709    2.09382475173533
C          -4.68521299748609   -7.33014301419580    3.30947305899647
O          -4.24490216736639   -8.45356572484850    3.49157122924044
C          -5.55109977307615   -6.69435418274645    4.31202773718898
C          -6.45202667057436   -5.67759462306469    4.12265564858194
S          -7.29782348548606   -5.28686915786406    5.54999677826231
C          -6.43965326601769   -6.49418462721298    6.43629652754038
C          -5.56139656955456   -7.17344318976429    5.65948244750458
C          -4.60835610950369   -8.24375126708932    6.09044969744679
O          -3.44783899899403   -7.98864205521410    6.31203301178648
C          -5.18127966531285   -9.60170489613138    6.23945554982425
C          -4.31002070991290  -10.68871604681297    6.19398167918193
C          -4.78713362192046  -11.97193560387778    6.37494998790854
C          -6.13270567755788  -12.17863686252781    6.63391167631720
C          -7.00362474689614  -11.10172878322959    6.68232806549924
C          -6.53839510589021   -9.81815391578148    6.46541958471597
C          -4.17217810343119   -5.16618779717612    2.20210095484779
C          -3.86004036794038   -4.40190581620848    1.09863890656862
C          -3.74574132130735   -4.98696817937435   -0.16439041426441
C          -3.92709253776564   -6.36208240554845   -0.26684987277069
C          -3.38234471323950   -4.18153988286364   -1.33270511954404
C          -2.53571352294050   -4.68031589923719   -2.29053280900162
C          -2.12291945843191   -3.86476460523437   -3.36472335426851
C          -1.25307029889723   -4.11186083542920   -4.42168908510829
C          -0.55734764195483   -5.39942097880340   -4.69963667377579
C          -0.70954075364375   -5.89302095640366   -6.16048260789517
N           0.25672585877164   -5.32591707368729   -7.09159711622774
C           0.92770287271259   -5.31425172618950   -4.25047599923360
N           1.63111941995118   -6.57540911445714   -4.21209715326821
C          -1.13933246369657   -2.87430480694040   -5.15465403533954
C          -0.35988146431958   -2.53533524083494   -6.19809927663570
C          -0.40114390539136   -1.16519423179721   -6.78288216413631
C          -1.38326256731539   -0.23794571380534   -6.15241729533532
C          -2.12382402257485   -0.58630045803397   -5.08202329022990
C          -2.02274269023218   -1.88512724419487   -4.53125355704311
C          -2.61249648504256   -2.49745592399434   -3.43773920135997
C          -3.52145356114373   -2.03053002287100   -2.46503495375273
C          -3.88774879366223   -2.85011309079114   -1.44395321529632
C          -0.57116511243198   -1.35875662838334   -8.26786902051486
C          -1.59174082795565   -0.95060402943952   -9.01149818478493
C          -1.65961679161547   -1.29881476318133  -10.43010405521918
C          -2.10713549584237   -0.39623737005622  -11.40186710896323
C          -2.59794690733859    0.95043256557016  -10.98885314603598
O          -1.91114988033958    1.73225320736802  -10.36375395264560
C          -3.97923160631223    1.24322048015738  -11.38393050123381
C          -4.83076365878705    0.38355204691526  -12.03250580245900
S          -6.34157899528561    1.09700091105548  -12.37160639833551
C          -5.84916421205870    2.58149007849720  -11.64054003624418
C          -4.59136125408464    2.51599335193779  -11.13936259192567
C          -3.92162904918803    3.62715795054782  -10.39821215997065
O          -3.64406676040172    4.67476158070658  -10.93458873222589
C          -3.66968334616483    3.35626932684525   -8.96354304434386
C          -2.79941491040650    4.19871656050463   -8.27418714331757
C          -2.53573419069491    3.98417936708224   -6.93573886322258
C          -3.14590956644550    2.93288142151236   -6.27003786295548
C          -4.02067667691738    2.09628365330890   -6.94634428599639
C          -4.28278365994485    2.30298869102227   -8.28727225631016
C          -2.05333881794619   -0.74208950332199  -12.74869325464279
C          -1.64560510363157   -2.00011747118831  -13.14175901771992
C          -1.30282351463423   -2.95057555878315  -12.17658222202244
C          -1.27171816635689   -2.56747640571890  -10.83715186817668
C          -0.92817928461068   -4.31707460940864  -12.46145749981482
C          -1.36653833722505   -5.17099192666242  -13.41107596802721
C          -0.71380419332647   -6.46132468620612  -13.66756536279882
C          -0.00771407737054   -7.20399788929639  -12.75903725320481
C           0.12986706617813   -6.87846825614088  -11.39372848548965
N           0.24925991753259   -6.68207444681274  -10.26739242098340
C           0.61122531599692   -8.43474385302558  -13.06435050786120
N           1.14261258498243   -9.43327891799056  -13.25757366735331
C          -1.02510792053267   -6.81428752463449  -15.03721873074977
C          -2.00620216335533   -5.91609506302346  -15.52763423034049
C          -2.47999875945834   -6.03683144764024  -16.82591192834182
C          -1.97425971581154   -7.04894475238832  -17.62483085568280
C          -1.01676451664417   -7.93377390074633  -17.14203668830698
C          -0.53469802110200   -7.82818810726751  -15.84812655622116
C          -2.36071035222842   -4.98689490223050  -14.47070765563292
C          -3.51239128782849   -4.25014623388873  -14.39967040139507
C          -4.45184863907422   -4.16564131800666  -15.44944382407106
N          -5.23693320785392   -4.03952389374136  -16.27687188967996
C          -3.96292447244609   -3.55357521375189  -13.26102358468598
N          -4.43279964768143   -3.00004609939374  -12.37072672844909
H          -5.28159683151098  -13.67155567954855    1.80742384140616
H          -6.91173423861403  -14.33279062531777    3.52122269099810
H          -8.40077716019237  -12.67099388737961    4.54522234570374
H          -8.24775752580214  -10.29770969626935    3.93411902663340
H          -3.56351417724793   -8.94617197942773   -0.02083055250346
H          -6.68508968347595   -5.16414889459299    3.20999552751242
H          -6.62824402528631   -6.61530057673926    7.48454068413926
H          -3.26340325724538  -10.49988419134783    6.01030042968981
H          -4.10997647642592  -12.81185518893337    6.32923269890032
H          -6.50241220851806  -13.17983532020155    6.80057270812307
H          -8.05143694815269  -11.26172131463161    6.89050184893343
H          -7.22563335842330   -8.98571331393829    6.49449716377109
H          -4.20239347586836   -4.70459071366312    3.17763762929026
H          -3.66722689767444   -3.34711477562582    1.22092626109014
H          -3.85132598705707   -6.83824274662513   -1.23339553532949
H          -2.13863677008941   -5.68038892298782   -2.19598398373351
H          -1.03539382839425   -6.16226691212214   -4.07270898885135
H          -1.70677403461019   -5.61095130210974   -6.50989817641654
H          -0.66854206938457   -6.99505311566973   -6.14618848838983
H           0.01841122736479   -5.60891733588434   -8.03721814163593
H           1.18560818432443   -5.69109666365909   -6.90403423041292
H           0.95522094606543   -4.89110024413408   -3.24264308062848
H           1.46766882649119   -4.63600595077514   -4.91369758149844
H           1.20734540514868   -7.20625766522220   -3.54082451638394
H           1.62259494408473   -7.03344788790162   -5.11627743205056
H           0.27831984927209   -3.27033536899270   -6.67156433847693
H           0.60290485521066   -0.72693353501299   -6.64526522504702
H          -1.44807948755215    0.74981490894977   -6.58329668312622
H          -2.80418355576677    0.12045615551629   -4.62915020771174
H          -3.91201373572096   -1.02593313538786   -2.53602572828522
H          -4.59492240392183   -2.51008117937164   -0.70256730959655
H           0.22631268147219   -1.93098883523589   -8.72371576426448
H          -2.37930964492542   -0.33375915525743   -8.60435666577828
H          -4.65579644110952   -0.64027407540216  -12.30493256812972
H          -6.52922592393208    3.40884410325777  -11.60178789051578
H          -2.33346041994638    5.00899547274252   -8.81385827715259
H          -1.85427966601035    4.63475550681527   -6.40777223212373
H          -2.93989266683286    2.76586353066296   -5.22263229587548
H          -4.49733146727768    1.27720297523304   -6.42752511874594
H          -4.97220696290450    1.65055374537344   -8.80394305807205
H          -2.32825416213072   -0.01032272824871  -13.49404579634704
H          -1.58052879733934   -2.24230792299184  -14.19236484789354
H          -0.98876863547780   -3.29533033647076  -10.09127066079450
H          -0.16955182152341   -4.69700095537175  -11.78867349430447
H          -3.21721638192432   -5.35368874140861  -17.21568972940706
H          -2.32939392279449   -7.14967244530825  -18.63893465998348
H          -0.63942810204716   -8.71357846501889  -17.78554235113816
H           0.21286005084533   -8.51626201545512  -15.48784165841601
