132
 SCF done       -217.784703097953          0.000681977814
C          -0.15413673573682   -3.47647232638998  -14.02877265337694
C          -0.69328480355551   -3.24962518361440  -15.28704041482472
C          -2.06197576550547   -3.11975145893879  -15.46553190461658
C          -2.93129969395110   -3.20412764325507  -14.38753649551534
C          -2.40450110370461   -3.43269091680994  -13.12823762191169
C          -1.01167954474990   -3.57500032115829  -12.94507912752062
C          -0.74948750671726   -3.82904022530850  -11.53224523446923
C           0.49530986768118   -3.96596771286856  -10.97152367649294
C           1.70408874650266   -3.85347839527682  -11.68961075963674
N           2.72897897489578   -3.77521153049078  -12.20196790777975
C           0.77820084734801   -4.21128480501474   -9.61211515427239
N           1.10715131100952   -4.41117095450435   -8.52929059262330
C          -2.04295655927312   -3.93527742825837  -10.87400535218860
C          -3.04963249585395   -3.53166280893772  -11.82687244277767
C          -4.32418111378366   -3.09969596675862  -11.54551939132335
C          -4.81807665922379   -2.88101793937401  -10.24791414057270
N          -5.27161522926811   -2.66344862577143   -9.21473846426072
C          -5.28962595405205   -2.78132825558726  -12.51774282904711
N          -6.14779994990302   -2.56277175111364  -13.25029297903079
C          -2.20309157278166   -4.42673129652857   -9.59323578957397
C          -3.32185053461765   -4.99358165209790   -8.97871694865037
S          -3.30161854818542   -5.20881571528463   -7.24896400669813
C          -4.87983229605192   -5.93068043049280   -7.25752711947275
C          -5.39336595238247   -6.03502557085007   -8.54751643065499
C          -4.50428038778940   -5.53997133735792   -9.51590607032512
O          -4.63446952132710   -5.58810020974605  -10.85538044253233
C          -5.51872557193285   -6.55278969525083  -11.40144822280930
C          -6.98436302105261   -6.12719949297804  -11.36412609033851
C          -7.41282516648894   -5.64589193531787   -9.97596456366688
C          -6.80300881708621   -6.47327461252908   -8.84097474321665
C          -5.51232023159236   -6.31584280326122   -6.04699850482016
C          -4.96763206858055   -6.14721317796864   -4.81968424655998
C          -5.59628353008728   -6.45624701988129   -3.56557616303292
C          -6.79933096155295   -7.12363426975202   -3.48103568606578
C          -7.42411264277026   -7.31215605304124   -2.23368823980530
C          -8.64258784866929   -7.88625255378870   -1.89691728128186
C          -9.66005456289128   -8.55421501496889   -2.75995803492872
C         -10.57569276949074   -7.53515343604435   -3.47275596210521
N          -9.81609866972180   -6.68401324335195   -4.37201631349909
C          -9.05687863485761   -9.51826767197578   -3.79547729527013
N         -10.04582895634922  -10.52906024294983   -4.13783552630209
C          -8.80566543638931   -7.69889765147595   -0.47372393922968
C          -9.83640202036383   -7.98423826213413    0.34173315638357
C          -9.80971913278378   -7.63274609276448    1.79230881216986
C          -8.52933872398197   -7.01922252759623    2.25681387915498
C          -7.50929738450295   -6.73317877820762    1.42694637207139
C          -7.60543456124502   -7.02657075149227    0.04477945247728
C          -6.77537134520109   -6.79654924362931   -1.03102414072101
C          -5.51007844096469   -6.16960592595680   -1.14043068825725
C          -4.94626375597206   -6.01234892732351   -2.36210782299117
C         -10.16497573931551   -8.86271714782143    2.59095998250030
C         -11.42979347614626   -9.24023452122203    2.80417961599932
C         -11.84371193673313  -10.40065296654309    3.53113424274326
S         -13.48407367576942  -10.92602729438502    3.41542473268569
C         -13.19261530256023  -12.26111791851184    4.49955657436369
C         -11.86374263834704  -12.29133076259745    4.91773902394521
C         -11.11058179241452  -11.22954525368265    4.37877934419075
O          -9.80627941751681  -10.94586257709225    4.63011509104043
C          -9.33915510833616  -11.26686911096416    5.93122548377079
C          -8.86305859834452  -12.71395909450034    6.06289308930454
C          -9.84330789779414  -13.69762827443317    5.42340374040780
C         -11.30241372814781  -13.39275648667222    5.77098901110600
C         -14.24002481453064  -13.13366639441369    4.85172937085667
C         -15.51753212855517  -13.01472475860909    4.38705526117155
C         -16.54307842243288  -13.90284836888495    4.74709723795248
C         -17.87106575768332  -13.77409850729297    4.41930631742558
C         -18.83817668021816  -14.85977216684650    4.40816056650094
C         -18.73085791305823  -16.07478615777446    5.03411219530252
C         -17.65556176069439  -16.47497088313261    5.85351452257428
N         -16.81599441558237  -16.86529479515315    6.53344150294302
C         -19.71192680273123  -17.08615498521519    4.97399976979350
N         -20.46613133217727  -17.95164490715022    4.96600832681484
C         -19.95923962005369  -14.41526876991132    3.58841615105234
C         -19.75344509527330  -13.06432675793925    3.22695665671272
C         -20.66502677168485  -12.40214581035996    2.42224434716888
C         -21.78286191833729  -13.09400243206487    1.97947896294265
C         -21.99148454211384  -14.41702470871441    2.34035586067047
C         -21.08604024115400  -15.09034758578696    3.14755500832721
C         -18.52662473759676  -12.60343694195247    3.86090237075596
C         -18.18917007216617  -11.29394916818366    4.08987656456863
C         -18.87726584782659  -10.19674943367583    3.53293247540117
N         -19.38039113583078   -9.26481350134695    3.08942710503196
C         -17.19907051297288  -10.87552051267138    5.00454861300105
N         -16.45487564060088  -10.47373603126843    5.78097953123164
H           0.91230397916636   -3.57474251013958  -13.91215088706758
H          -0.03343844585512   -3.17557450518838  -16.13808158728396
H          -2.45950420714615   -2.94961934653834  -16.45466003318532
H          -3.99379346657914   -3.10284447006834  -14.53881981435364
H          -1.31874323893298   -4.43338169525553   -8.96864481777409
H          -5.37618921393315   -7.50612693392759  -10.88038473704044
H          -5.18922521647898   -6.67222749776549  -12.43747848069333
H          -7.58203508222026   -6.98884273260919  -11.66763204202401
H          -7.15120145537640   -5.32733448813130  -12.08732542342625
H          -8.50120141168863   -5.68861997670858   -9.91297343868327
H          -7.11910799113108   -4.60310948490000   -9.83766274298191
H          -6.84790705753346   -7.54027822552319   -9.07965552984375
H          -7.40201765802631   -6.31673491947993   -7.94362129954797
H          -6.49553505625353   -6.75172583395715   -6.14234311801268
H          -3.98289911949488   -5.69854814262205   -4.76099588552507
H          -7.29469388084702   -7.48117244678138   -4.36703056901178
H         -10.31052755465462   -9.14917747462608   -2.10901467614292
H         -11.13144037985314   -6.96890757731464   -2.70594478641815
H         -11.29027800629279   -8.10456310092337   -4.07148377783185
H          -9.22528161948149   -6.05301483020489   -3.83969710405941
H         -10.44528759293002   -6.12041755569900   -4.93247792338530
H          -8.11953535594208   -9.94159128928040   -3.39785486369194
H          -8.83174218692772   -8.96353010226388   -4.70686141265526
H         -10.20898802904006  -11.14648001181082   -3.34870095658931
H          -9.71794834319701  -11.09753931893038   -4.91049089982570
H         -10.73649913025644   -8.46801745806334   -0.01312532217369
H         -10.61769326865940   -6.89908549908829    1.94891410243518
H          -8.46962438825665   -6.80321273766582    3.31275589630639
H          -6.60689614511866   -6.27247708682067    1.80200386280170
H          -5.01500588634302   -5.81451172847042   -0.24853273780108
H          -3.98743886320278   -5.52453197168563   -2.46082171820273
H          -9.34086388201807   -9.45527614021841    2.95324429352098
H         -12.24375355639073   -8.65175560635891    2.39698015978608
H         -10.12761651660631  -11.05286718574004    6.66169416616226
H          -8.50794329228708  -10.57997394336875    6.11263914955212
H          -8.74724133554285  -12.93301289910414    7.12569821046898
H          -7.88843702208584  -12.82525110324107    5.58566691878185
H          -9.59505890637181  -14.70627785079393    5.75733556077511
H          -9.72888269122123  -13.67287283694589    4.33745296326712
H         -11.38874963665790  -13.13743246484012    6.83170619990504
H         -11.89698692921567  -14.29241192988093    5.60648067623080
H         -14.01926310054341  -13.91512019289628    5.56615773641489
H         -15.73136084083548  -12.22066321433248    3.68439874669460
H         -16.23393144925575  -14.80501751104561    5.25668340308829
H         -20.51082813016067  -11.37583032026535    2.13088508119427
H         -22.49775946373783  -12.59349183447261    1.34439085402680
H         -22.86977233795536  -14.93515890103131    1.98670590629087
H         -21.26366403152005  -16.11886016477311    3.41527969488197
