114
 SCF done       -186.114960871559          0.000886115861
C           1.35265335486344   -8.13909576756830  -12.49418471464125
C           2.67728206105325   -8.31030159844605  -12.86306286188159
C           3.70926000430456   -7.78999007016782  -12.09210547873357
C           3.44629774559469   -7.08634888937690  -10.92761872516943
C           2.12548083169717   -6.90386840388935  -10.54797491133910
C           1.07309977440136   -7.42998379167674  -11.33543993333197
C          -0.19287799353340   -7.09360500154917  -10.70867116472230
C          -1.42496197448491   -7.59964113136547  -11.01941785003554
C          -1.66393412289151   -8.49107405946940  -12.08651810079937
N          -1.91832118057274   -9.20800020040240  -12.94583352383862
C          -2.59540681543559   -7.35594303072040  -10.26926432377246
N          -3.57103338119884   -7.22107014164866   -9.67856878516536
C           0.11321306769720   -6.14454977835186   -9.63539433735642
C           1.55242793543249   -6.24073827303847   -9.38942810688346
C           2.19478140669840   -5.96787304827094   -8.21426227138911
C           1.53893048781563   -5.57012224306232   -7.02952819546627
N           1.06940181566624   -5.29838522597686   -6.01837944776672
C           3.58200636290128   -6.13400461834634   -8.02262628686296
N           4.70744433286933   -6.23288900961584   -7.81983855986471
C          -0.78154853793223   -5.24694995705244   -9.15852849914727
C          -0.55660884500683   -4.07680013421106   -8.35985193873570
C           0.50646701420411   -3.23766922047903   -8.36618648289559
C           0.24619922771766   -2.08610810153987   -7.46532681668880
C          -1.12480289944828   -2.36559775321803   -6.95703909641852
C          -1.59668950516430   -3.51781480930900   -7.48192998226180
C          -2.85912401814432   -4.17354941158454   -7.24701501160398
C          -3.95163162615774   -3.55032437002992   -6.77518196626662
C          -5.24264335397901   -4.14420953482958   -6.51547673357105
C          -6.29299460242066   -3.31948183492774   -6.18228046693870
C          -7.57114038518341   -3.84971041328938   -5.91010526556830
C          -8.77374439916156   -3.24696048847161   -5.57006901294378
C          -9.09450198901903   -1.79487062245265   -5.43410194444939
C          -8.16257181338184   -1.06946591946776   -4.44727667652828
N          -8.88772276641570    0.01238642864268   -3.80277717554293
C          -9.08775714843095   -1.12021607738576   -6.81796282620726
N         -10.19520012541837   -1.63313249325867   -7.60721419774102
C          -9.74052752566470   -4.30794648929641   -5.40930333754280
C         -11.05139999171747   -4.27152304999959   -5.10581728945709
C         -11.86597630770195   -5.51748121644898   -5.03545834818138
C         -11.08865695155168   -6.78064157545074   -5.20897797551901
C          -9.77858829688063   -6.79963597273199   -5.51632347208558
C          -9.06202253643774   -5.58617225610207   -5.65195884077537
C          -7.74960970200680   -5.29643044162179   -5.96746024816629
C          -6.65569374407352   -6.12076948584414   -6.31801784777654
C          -5.44993990515120   -5.56146962418256   -6.58811196265900
C         -12.95406671719833   -5.37271672785953   -6.08303420662246
C         -12.85487431396057   -5.88567315760742   -7.30607301648873
C         -13.86355253504855   -5.76662479952592   -8.33930153303184
C         -14.82928964951476   -4.83202742941018   -8.45276313722585
C         -15.66578253131076   -5.09581554089437   -9.65610613099384
C         -15.05192865550679   -6.32241422469349  -10.22445015180946
C         -14.00238366173541   -6.71392462416076   -9.45896228529676
C         -13.17079542757481   -7.86793442359240   -9.61880798003698
C         -13.37510424123047   -8.88400630019284  -10.48616382128614
C         -12.51372430897226  -10.01398847005856  -10.59868233283927
C         -11.74974660567453  -10.56992317529904   -9.61500792789503
C         -10.58347164794119  -11.41854739191862   -9.85056087713040
C         -10.30187623099993  -12.15003442922018  -10.97101935879129
C         -11.13333797305101  -12.24756894388051  -12.10723661588637
N         -11.76450387638759  -12.38054859824803  -13.05705222684486
C          -9.15881618293924  -12.96636387458717  -11.11180658843388
N          -8.25594816117653  -13.65318214772096  -11.28515568680388
C          -9.77336259870873  -11.35544957509010   -8.64119981555804
C         -10.50953268024791  -10.69145649072605   -7.63338742026864
C          -9.96144074747521  -10.48672254074063   -6.37760046049822
C          -8.67064135262594  -10.93329781745423   -6.13850442565293
C          -7.94508180442971  -11.58235175751562   -7.12793327162855
C          -8.48759341711464  -11.80497411104817   -8.38482697165478
C         -11.81240582588085  -10.33748761819912   -8.17291555320175
C         -12.93926899371086  -10.08758195891981   -7.43703516780452
C         -12.94818436242661   -9.95756179333005   -6.03497940418224
N         -13.00757563358880   -9.80991759724206   -4.89747213677491
C         -14.23734881361778   -9.98160739313807   -7.97943647395949
N         -15.32402311615316   -9.93546335191069   -8.34503676369973
H           0.56181517856668   -8.54412142641248  -13.10448302282171
H           2.90858565058164   -8.85488119581732  -13.76567426755972
H           4.73246039169888   -7.93360814312756  -12.40396017312628
H           4.25560092118142   -6.68264500320399  -10.34074745051627
H          -1.81181998789844   -5.36911991536558   -9.46968029758354
H           1.39784126438341   -3.32466913940180   -8.96194808018416
H           0.31518420201591   -1.12770800213512   -7.98649176173194
H           0.97664958088814   -2.05369027821356   -6.65167838369488
H          -1.61778838976185   -1.73255855221201   -6.24397655100078
H          -2.89700563519176   -5.22475035134518   -7.49395371449399
H          -3.89118054484993   -2.48617192883506   -6.58146035177281
H          -6.13500751844085   -2.25205883668485   -6.13119458218586
H         -10.10726418262173   -1.69819423816914   -5.03452791194917
H          -7.25480790944578   -0.72874856506738   -4.97177847103498
H          -7.85557261047704   -1.76871757965691   -3.66460246182666
H          -9.17532150156998    0.70321753913637   -4.48791592732032
H          -8.30069892939387    0.47798507573780   -3.11969888614541
H          -8.10410923455793   -1.28004368812278   -7.29092324891654
H          -9.24084775367633   -0.04249119044746   -6.70491116204036
H         -10.09755806428313   -2.63734435892324   -7.72211979923685
H         -10.19798699635730   -1.21301512389060   -8.53030029308522
H         -11.57564910853023   -3.33960775540554   -4.94698466548699
H         -12.36707035715890   -5.54938306759287   -4.05719650254294
H         -11.65515469006628   -7.69080570125332   -5.08277729364263
H          -9.25149325904746   -7.73418030790151   -5.65097560250967
H          -6.79323419968503   -7.19134428130208   -6.37083855649926
H          -4.62012623883514   -6.19373108554804   -6.85910358301144
H         -13.81994536696119   -4.79678233451235   -5.79266773872915
H         -11.96860816449942   -6.45576794651604   -7.55393597234885
H         -14.99374197070552   -3.99308598267712   -7.80318201763044
H         -15.64951711212413   -4.26166992393162  -10.36253575747074
H         -16.71468510254851   -5.26011345878950   -9.39439032779993
H         -15.41098729327380   -6.79380147049424  -11.11980341874837
H         -12.30233170947814   -7.91771172072542   -8.97408179848707
H         -14.18036484354402   -8.82269609249100  -11.20416855772994
H         -12.41923406187029  -10.42350089148094  -11.59615442141378
H         -10.51477698086451   -9.98205232263244   -5.60240318744549
H          -8.22501259133312  -10.77011254788340   -5.16879360344484
H          -6.94096054925473  -11.91859326379516   -6.91960783337387
H          -7.90878524317844  -12.30787957071282   -9.14200962777956
