115
 SCF done       -209.157423209597          0.000412903399
C           5.44634232778677   -1.03771499030477    1.47637375656368
C           6.05373464585479   -1.47530584746622    2.64429500182721
C           5.53663146561031   -2.54220976115796    3.36408340716550
C           4.38958546374560   -3.19724635705471    2.94096150837814
C           3.77455176230313   -2.76819548071824    1.77703883630513
C           4.30546035543573   -1.68913602167749    1.03578249947280
C           3.47818901652427   -1.47769629993019   -0.14674939149843
C           3.63481972203680   -0.46350885005910   -1.05665289250355
C           4.61956174164067    0.54170385717114   -0.95919681640015
N           5.39121597641736    1.39202164016536   -0.94622403178452
C           2.83547074273137   -0.24208860806327   -2.19700574142949
N           2.23824276266814    0.01016531867205   -3.14554114822707
C           2.49648662302432   -2.55131501914424   -0.17174287333421
C           2.56338677194954   -3.22681349801533    1.11268469374014
C           1.55288653091527   -3.93401821261439    1.71362943256570
C           0.26541533410498   -4.09531836640650    1.16374686376950
N          -0.81456917021684   -4.21149606384710    0.79192189097820
C           1.64729443426566   -4.50559800005559    2.99784941301053
N           1.67491631352071   -5.01385313489437    4.02717251564347
C           1.73332027051466   -2.87136359646024   -1.26942683897639
C           1.11243790502172   -4.09256799312133   -1.57861346212717
S          -0.08510310071949   -4.12359831610638   -2.85194129677939
C          -0.26748192705330   -5.83870521193045   -2.70973319253766
C           0.59147332114484   -6.35048313500937   -1.74415928841800
C           1.34832176895371   -5.38270894717242   -1.11162848419614
C          -1.19334216553176   -6.54759450054540   -3.50611460933594
C          -2.05641816102052   -6.04120570979537   -4.46066959315637
C          -2.84581792216981   -7.01021147021815   -5.06582344668540
C          -2.60854015313654   -8.29008472351942   -4.59184402139135
S          -1.37718598584358   -8.27633958395278   -3.36590169004455
C          -3.24036136525340   -9.49146432892483   -5.00004252448907
S          -2.80591857175243  -11.03598323180558   -4.32050973907357
C          -3.97301472295687  -11.86306891814112   -5.30934241477337
C          -4.64814855371310  -10.96470636697051   -6.11288608291134
C          -4.24029107355122   -9.64485246158789   -5.94103628772234
C          -4.10833989372185  -13.27706768056819   -5.20402599680313
C          -4.99325979468319  -14.00898120560839   -5.91196684477834
N          -5.08450204871133  -15.36504561516857   -5.83640927859939
C          -6.07040321747267  -16.13519377943747   -6.42694572697334
C          -7.25406917409598  -15.68592278491396   -6.93662273957497
S          -8.21006383273927  -16.95967684667719   -7.57962979722354
C          -7.01328573754094  -18.12100866428721   -7.17600116561352
C          -5.92843973049590  -17.55921271862651   -6.56929531484331
N          -4.76638586258652  -18.20757743646980   -6.16570894003073
C          -4.63399089278694  -19.53267700663856   -5.84311640989417
C          -5.63315323051283  -20.35277111315957   -5.46306820685225
C          -5.47134897788550  -21.73570312159409   -5.15829832601607
S          -6.85330573787810  -22.64320975878200   -4.62067516882544
C          -5.92315095761400  -24.11261833252798   -4.52923152199323
C          -4.61297237398409  -23.87712957212203   -4.89630552596868
C          -4.36119216587683  -22.55193902911830   -5.24649019494359
C          -6.52089740680262  -25.34015290067416   -4.14334743823756
C          -5.94308401676461  -26.59764918811754   -4.12121229627089
C          -6.81584220269362  -27.60113841044486   -3.71610331127585
C          -8.08429085190658  -27.14012809192775   -3.41101513816855
S          -8.18071104566626  -25.41550572214328   -3.63792380356887
C          -9.20633460740116  -27.88762543965184   -2.97886814247337
S         -10.68911243948243  -27.11018432281402   -2.52872464587569
C         -11.44418250459886  -28.64561670723593   -2.17708147462950
C         -10.55410485442876  -29.68613940095283   -2.41462879681849
C          -9.30994632641957  -29.26776433280999   -2.85535568857268
C         -12.77178992666950  -28.74630237236603   -1.73084257125212
C         -13.59287051899193  -27.67783824209711   -1.50310287838187
C         -14.90983494565971  -27.82571000493179   -1.04685832651066
C         -15.82923976697836  -26.81903725738325   -0.86422589249701
C         -17.00624380712605  -26.91828257359385   -0.01763453586020
C         -17.61048780433360  -28.06205621326301    0.43810700483081
C         -17.21316700952027  -29.37720550301580    0.12142552238881
N         -16.95403913768730  -30.47548520862254   -0.09431975054862
C         -18.75299790375308  -28.07909314114269    1.26424013713947
N         -19.67941756629634  -28.16916222603222    1.93673027720929
C         -17.43539575976581  -25.55428326263438    0.26870577992465
C         -16.64002746004400  -24.65944421171700   -0.48202205441556
C         -16.82367026324842  -23.29153503201058   -0.37343756118299
C         -17.80482604010943  -22.82083131747784    0.48694534927615
C         -18.59345636741805  -23.69772169844093    1.21679669412958
C         -18.41938665914271  -25.07032634687853    1.11540138795636
C         -15.72992576169632  -25.44004698468338   -1.30912395974699
C         -15.09355830963240  -24.98680024084744   -2.43681674801874
C         -15.05310072978621  -23.63236208023593   -2.82492936723528
N         -14.96322008326153  -22.54375762467179   -3.17916785125928
C         -14.51484863031188  -25.82212289190527   -3.41601988297010
N         -14.08741278471611  -26.44986930344553   -4.27705453414083
H           5.86566991076386   -0.20936272738301    0.92989286533192
H           6.94508182032018   -0.97686902515192    2.99363335794441
H           6.03129539100231   -2.86978910047927    4.26570737062730
H           3.99953191356761   -4.02861688382255    3.50550842637271
H           1.64686256426936   -2.11919668443117   -2.04243879900208
H           0.64196134226905   -7.40173685859656   -1.52174567648559
H           2.08918289831670   -5.60653387818094   -0.36422892300759
H          -2.09812558969604   -4.99241686572074   -4.69634912305348
H          -3.57114968215851   -6.79600141932225   -5.82876500266754
H          -5.41506723269465  -11.25630972336054   -6.80681335771040
H          -4.66080985685706   -8.81878073432508   -6.48504693013588
H          -3.44868879223856  -13.77016777182948   -4.50259127921296
H          -5.66742228112451  -13.54738004659170   -6.61498401658599
H          -4.46226717920337  -15.83524636121618   -5.19343582880443
H          -7.63643366941694  -14.68663192810777   -6.95323450116982
H          -7.16623330989796  -19.14695571161380   -7.43851925417887
H          -3.91210213393530  -17.69253579116612   -6.31733041101787
H          -3.61402888212252  -19.88888870410132   -5.87209946758487
H          -6.63586318739859  -19.96456624074219   -5.36886188911706
H          -3.86310042157902  -24.64726585996513   -4.90907553019009
H          -3.39590528782193  -22.20161694222358   -5.56398454150700
H          -4.92059411552510  -26.77532810891415   -4.39979788771763
H          -6.53680933201204  -28.63640687530764   -3.64190740841768
H         -10.82389436437029  -30.71661575775587   -2.26542370587356
H          -8.50185582087731  -29.93528121093551   -3.09232187140405
H         -13.15682284615392  -29.74823978993245   -1.58795326885669
H         -13.18686800644977  -26.68589766593988   -1.64695081261739
H         -15.19028051011576  -28.82159992330909   -0.73191247513953
H         -16.21395356213599  -22.59975941642408   -0.93169417036921
H         -17.95362365988564  -21.75654172643182    0.58819736792685
H         -19.35318104729554  -23.30966762211407    1.87808465284368
H         -19.03899033189450  -25.73636753404441    1.69296379518099
