118
 SCF done       -210.731997171337          0.000633283237
C           2.14610309548115    2.89695794209067   -2.79162184731086
C           3.46625248683207    2.91769766307038   -3.21698167439667
C           4.15237526073005    1.74140910245320   -3.48167844426981
C           3.53944117118638    0.50794760911039   -3.31992132012057
C           2.22195320052749    0.47523210499388   -2.89477101953619
C           1.51749407811172    1.67198602671238   -2.63415198743670
C           0.15630131696533    1.33968280653207   -2.23013726113572
C          -0.79022761790801    2.23403009719719   -1.80214967054898
C          -0.56771555150702    3.62149105076177   -1.67665303350792
N          -0.45862621480513    4.75699175847493   -1.54735302070682
C          -2.10076176578008    1.91440453419938   -1.39083091006928
N          -3.18012157731863    1.73736421746941   -1.04008159266614
C           0.01017157121680   -0.10023698114165   -2.38767384458036
C           1.34085706046634   -0.64628455790948   -2.60687953987269
C           1.75516800787361   -1.92048996900726   -2.31585601871434
C           0.93654450849309   -2.91132323166074   -1.73671076898678
N           0.34417781733675   -3.74252375173592   -1.21098096751667
C           3.08253808545156   -2.37024226198546   -2.46475557992523
N           4.13961626182382   -2.80127504567317   -2.58682054457802
C          -1.19112918157628   -0.76315975975438   -2.39678712034786
C          -1.47217098618808   -2.02664602299483   -2.94967681504760
S          -2.90092499253169   -2.88356672660683   -2.42719028441212
C          -2.57363944364125   -4.19054256639401   -3.51348022548447
C          -1.44350674443452   -3.93120616996292   -4.27736428279440
C          -0.82531220708976   -2.73638278435625   -3.95516643704554
C          -3.36731129559589   -5.36056729519207   -3.51440355063575
C          -4.43009587500695   -5.66408291223821   -2.68474818541067
C          -4.94173896423980   -6.94074192718070   -2.88477322126860
C          -4.28875791792527   -7.64534144514895   -3.88063142900742
S          -3.02042379578205   -6.69075713739256   -4.58579263144789
C          -4.52399322444050   -8.98781984158732   -4.27985668556493
S          -3.82850223572822   -9.66300929810886   -5.72472750572483
C          -4.50296041661855  -11.22872330962855   -5.37952397073316
C          -5.23444761089369  -11.19365703099044   -4.20794420879357
C          -5.25572328118783   -9.94223696033345   -3.59957112451354
C          -4.24989457230979  -12.33639063622008   -6.23920272430540
C          -4.40201235787501  -13.62024546478664   -5.84627785051202
C          -4.19887856141214  -14.77032538986797   -6.65756952682218
S          -4.34632447087661  -14.70715978822893   -8.38955968882531
C          -4.18752214750151  -16.41729341791356   -8.49616099635840
C          -4.02570671827489  -17.01923400248222   -7.28975043196039
C          -3.85005863556068  -18.48924278455441   -7.10311242273317
C          -4.00423298822661  -16.07604847304809   -6.21689631032119
C          -3.72785302837308  -16.42987477425763   -4.85142987514047
C          -3.05383340580136  -15.63029866537503   -3.99550471806459
C          -2.77662510496607  -15.93278210030337   -2.63325636665795
C          -2.02363253567934  -15.10698105360868   -1.86804800711981
C          -1.69412731482826  -15.28366744118748   -0.49809892840200
S          -0.61232696433845  -14.14167190707400    0.25166483489867
C          -0.72391704690339  -14.96186680109585    1.78100006224834
C          -1.56281956235150  -16.05493207399142    1.68808548459248
C          -2.10004077973599  -16.23740346357103    0.41613231494373
C          -0.00722977824842  -14.48500926263527    2.90747945690552
C           0.90630631356889  -13.44897717601150    2.94581448838375
C           1.44013483725076  -13.22629765132940    4.21009712605392
C           0.94164677548584  -14.08119263929997    5.17624766119188
S          -0.20902271906886  -15.19166170501346    4.48309819189356
C           1.26086122611686  -14.10528085467195    6.55654479757258
S           0.43139554129864  -15.13825197878919    7.67300025850357
C           1.37743560798126  -14.54000724935053    9.01289206304931
C           2.28654765705792  -13.58748302736245    8.57293788046608
C           2.22062279759298  -13.34395958219213    7.21117789245590
C           1.16019688174557  -15.05942486058710   10.30360534862012
C           1.81607178383923  -14.65459116753505   11.42993328870665
C           1.59070005867198  -15.13089175450217   12.73773116054325
C           1.00553055295807  -16.29840658444530   13.16365945438490
C           0.43825730780584  -16.47245023623072   14.49541662055269
C           0.65689372468207  -15.70185010693127   15.60764287770482
C           1.52160198344489  -14.59059124288651   15.69347651004298
N           2.20531469747475  -13.68192131701228   15.85693752198407
C           0.06939016782612  -15.94804801856125   16.86670543220423
N          -0.37076145628718  -16.08402049215514   17.91834745146167
C          -0.42665739673749  -17.64459451082481   14.43705885393782
C          -0.26946304891294  -18.26230173156606   13.17669939840362
C          -1.00172784034756  -19.39031715061899   12.84656443133679
C          -1.88844970368140  -19.90138736079338   13.78252649509236
C          -2.03685320577304  -19.30248360007999   15.02494703056744
C          -1.31066459775918  -18.17085375275780   15.36544613250702
C           0.73483539573858  -17.52300626456037   12.42470265100711
C           1.45922277149412  -18.03181251828245   11.37767753972373
C           1.19727960238822  -19.27639165252929   10.77000939266994
N           1.02463948871616  -20.27003768999444   10.22115841088459
C           2.59969609861310  -17.41874074451716   10.82153072346451
N           3.55354752699434  -16.99231646016228   10.34614887044100
H           1.62949372988121    3.82167865194330   -2.59489453737434
H           3.96367595111890    3.86678974091149   -3.34599728479043
H           5.17680631542085    1.78335661886762   -3.81871305051149
H           4.08007363073465   -0.39970680453246   -3.53424598517398
H          -2.04893997598133   -0.24727480203364   -1.98632217866830
H          -1.08928390210222   -4.61438357392881   -5.02891744525086
H           0.04856006434614   -2.36464221552615   -4.46122691027881
H          -4.80253274679142   -4.97054789651209   -1.95168045903707
H          -5.76754622479296   -7.34590294152282   -2.32959901316216
H          -5.75282918773675  -12.04992024575308   -3.81621620766461
H          -5.76887838134856   -9.73657108961169   -2.67786566981227
H          -3.87513321550494  -12.11781161394586   -7.23004250046862
H          -4.69679993971786  -13.82754844019948   -4.82564641732352
H          -4.21973023428073  -16.88280318986174   -9.46172165421316
H          -3.87280506005831  -18.99877578416598   -8.06264746064271
H          -4.64655163494331  -18.89014327290664   -6.47681551825661
H          -2.89828539717007  -18.69817110905513   -6.61634823352245
H          -4.03798304693122  -17.41575168886430   -4.53013586195669
H          -2.65391232310099  -14.69367620690313   -4.36196248966412
H          -3.18711881016830  -16.84354760122271   -2.22042987904001
H          -1.61606552378877  -14.21482678691192   -2.32772615447685
H          -1.76567869026327  -16.69491149512206    2.52899246107565
H          -2.77308249726995  -17.03729049517112    0.16630892836178
H           1.16939123527428  -12.88177498605602    2.07058762902356
H           2.16264237808698  -12.46013280599045    4.42306644147770
H           2.97823382752194  -13.09371211556771    9.23021145739395
H           2.85348139859239  -12.64248472275425    6.69927686972783
H           0.38040901569597  -15.80631691283938   10.38266393926334
H           2.51109924125829  -13.83111821225599   11.34935661602487
H           1.86892387598969  -14.43082518940219   13.51492780103860
H          -0.90139908523086  -19.85967704487733   11.88141190695308
H          -2.47102153040793  -20.77620325658119   13.53715562820896
H          -2.73109247150709  -19.71820238471493   15.73918765201375
H          -1.44507666320670  -17.71587947100827   16.33272404152033
