128
 SCF done       -211.847559922282          0.000342452955
C          -2.71612461093791   -2.29436699780997    6.43809440399480
C          -2.91373152739493   -0.92943212047933    6.59123427174888
C          -3.94066080141844   -0.27562118694293    5.92728249853398
C          -4.80805729643692   -0.97070225324752    5.09703154964951
C          -4.62002544250327   -2.33247693140733    4.93757739722156
C          -3.56755643385611   -2.99927910242347    5.60345986845642
C          -3.59129530987434   -4.40896643910251    5.22653312423872
C          -2.75950255587167   -5.38278666958151    5.72365046265136
C          -1.77763696830868   -5.15551399484817    6.70912709820603
N          -0.96162345667770   -5.04822610135496    7.51043993501626
C          -2.76984862337981   -6.74370218126520    5.35972486176375
N          -2.70627395081686   -7.86644004481392    5.12023382156684
C          -4.62494245286395   -4.55773610671926    4.22149296438897
C          -5.37371515539153   -3.31776228573894    4.17589937811717
C          -6.67611189927786   -3.17209493765033    3.76225535266849
C          -7.48002266503696   -4.24509883870135    3.33171351275038
N          -8.17817458888485   -5.10368547213110    3.02275906617753
C          -7.38926835610742   -1.95985632548214    3.81250162873959
N          -8.01630474898052   -0.99755220408604    3.81162998015854
C          -4.78826911080777   -5.67699080195584    3.43110151496073
C          -5.35513808788032   -5.76316885451830    2.15670320888107
S          -5.49309181507809   -4.38719464586650    1.09393046881590
C          -5.94817521407129   -5.35921812814943   -0.24920417067238
C          -5.94473517034191   -6.72474143536004    0.07194744163993
C          -5.67871034733894   -6.94618473553253    1.46004361984102
C          -5.76462405500621   -8.24435575644985    2.01449201410408
C          -5.72838857928322   -8.47717527175522    3.45613602911774
C          -5.11728119726460   -9.49961584107780    4.03829876079804
C          -5.95414565122475   -9.29138485246663    1.13570922390660
C          -6.03421438253171   -9.08880686306066   -0.24462731384508
C          -6.04293133157547   -7.83507710307319   -0.80958097215061
C          -6.06545338984676   -7.70176828097830   -2.30003813476265
C          -6.36389184484950   -4.70013452267512   -1.46571321869287
C          -7.54893224883137   -5.05704815052438   -2.06279743636112
C          -7.96003441617130   -4.41683329334082   -3.24969964332631
C          -9.06485956094122   -4.61087885014694   -4.06513983718088
C         -10.22624082623402   -5.52809468475123   -3.87658914672752
C          -9.80429806336739   -7.00978711243431   -3.85500926308057
N         -10.91561009515710   -7.82696774204903   -4.30279405121329
C         -11.01855407524926   -5.14695585870215   -2.61151393912420
N         -12.26960835214921   -5.88880067149580   -2.55215047617164
C          -8.89635478942315   -3.73493493003717   -5.20063283298954
C          -9.61553513984174   -3.60445550116236   -6.32972683974948
C          -9.18146790784528   -2.69505229133567   -7.43113734567746
C          -7.99881812802551   -1.84155087632888   -7.10025487435405
C          -7.28692514001433   -1.98911516032333   -5.96716387682062
C          -7.66641364601600   -2.95397450932227   -5.00394573809912
C          -7.10425602410916   -3.37905097253679   -3.81813515105104
C          -5.92692184423935   -2.98968956126639   -3.13672048623142
C          -5.57822191668927   -3.62231323934882   -1.98924218145942
C         -10.34712889143433   -1.87100904573459   -7.90344496582724
C         -11.08149626206603   -2.19955863340489   -8.97280442480722
C         -12.18827012171360   -1.45000215656445   -9.47931128279514
S         -12.33748377006126    0.22697779512641   -9.13346990839652
C         -13.65109573155163    0.43304044488110  -10.26206572062655
C         -14.00381272572946   -0.80487930610876  -10.84381721588111
C         -13.18562641590958   -1.87900363413558  -10.36628005242533
C         -13.42249693398060   -3.21339034481836  -10.79105337943179
C         -12.75575969767628   -4.36126231331189  -10.17960742377037
C         -12.32711642645528   -5.42357212876401  -10.84806571135169
C         -14.39692626745991   -3.40901661098557  -11.74453169020167
C         -15.19222969372365   -2.35875304528218  -12.20676299243469
C         -15.05700373108936   -1.06512825954186  -11.75182175880828
C         -16.03686907055033   -0.02764131526772  -12.19424242623965
C         -14.09429932282603    1.71480978667787  -10.61190932369635
C         -14.00901729166308    2.88172499969934   -9.88482990618158
C         -14.00668596563221    4.20953071338572  -10.47131313872755
C         -14.30476110143869    4.55264574555367  -11.76751710109204
C         -14.70128136805211    3.65923915259010  -12.78124148026476
N         -15.02738648492434    2.98800506127017  -13.65626235157301
C         -14.28312214021493    5.87258161562468  -12.26299047911989
N         -14.28882624655919    6.91833300010501  -12.73727575530729
C         -13.59653618702718    5.13451039954696   -9.42099428635186
C         -13.46236733022474    4.41881408573144   -8.20997229406277
C         -13.05776334888798    5.05904367088914   -7.05135287498423
C         -12.78920639202006    6.41901031759582   -7.10583786834393
C         -12.93059907180071    7.12606074079322   -8.29061598588293
C         -13.33493906713390    6.49442308153497   -9.45796147825879
C         -13.84849759521802    3.03666406648068   -8.45117276741556
C         -14.26039166505146    2.14792412992059   -7.48876795026736
C         -14.13600644797943    2.36799096220590   -6.10372440955008
N         -14.03787381941509    2.47561611114469   -4.96463561827197
C         -14.93787873228045    0.94714227599745   -7.77718647211034
N         -15.53419735313112   -0.01445077568932   -7.97566479684014
H          -1.91105522990377   -2.78357572690486    6.96100701229254
H          -2.25304284178264   -0.37043276157128    7.23634903679569
H          -4.06926120085216    0.78832703164828    6.05602749839294
H          -5.60039999974667   -0.45249492106636    4.58142810492881
H          -4.33136749075433   -6.59504496684863    3.77696401585505
H          -6.27989410060788   -7.75725987668526    4.04959375056215
H          -4.53043238427521  -10.20558791611439    3.47535873989090
H          -5.14617167496083   -9.64367155736507    5.10356202898375
H          -6.03285087918764  -10.29461760828231    1.52587746722202
H          -6.10448634921032   -9.95274092440363   -0.88975638853512
H          -5.64870825163726   -8.60091365219784   -2.74960418842145
H          -5.48423974695640   -6.84293837015959   -2.62684283519514
H          -7.07913737595432   -7.58143547547942   -2.67848323943060
H          -8.16735078441036   -5.81366053423403   -1.60689840309119
H         -10.89987225182854   -5.41915962462421   -4.73221723727237
H          -9.45178969141335   -7.27115025108403   -2.84376853559162
H          -8.97255123653129   -7.15746713418962   -4.55385367739275
H         -11.70628738608062   -7.65383642735318   -3.68658303266393
H         -10.67718750325528   -8.81144703605739   -4.24637051587662
H         -11.16419667931897   -4.05337109200616   -2.61060816803189
H         -10.43900073980056   -5.40210951725383   -1.72152417910600
H         -12.89523589807619   -5.57497982694464   -3.28806024470417
H         -12.73226755856796   -5.72416504159893   -1.66462343430962
H         -10.51457600915585   -4.17748541759191   -6.51076577128615
H          -8.89338922736120   -3.35599913135000   -8.26661383075321
H          -7.72662387993867   -1.10728846247632   -7.84297380851664
H          -6.41828849411299   -1.37472762284970   -5.78019014031420
H          -5.31609397064604   -2.19561370392724   -3.53951266383368
H          -4.68129332117105   -3.34601391650654   -1.45416808398677
H         -10.58894244247237   -1.00297903920738   -7.30602156295481
H         -10.83482384620832   -3.09105629027478   -9.53576792874192
H         -12.66457799216260   -4.32347910041383   -9.10101743002406
H         -12.38780370668971   -5.48038474482692  -11.92212572146297
H         -11.88093585088182   -6.26563815099806  -10.34751277607547
H         -14.60078419702190   -4.41151824871114  -12.08876945566062
H         -15.97620249135689   -2.58214673383695  -12.91532726964927
H         -16.35419748764522    0.58316261202979  -11.35054216084198
H         -16.91302919360282   -0.50751353621383  -12.62373922250509
H         -15.61479513946028    0.62673834621746  -12.95785414949817
H         -14.44406248866830    1.80891642861182  -11.62750478093059
H         -12.94061702654478    4.51810706984591   -6.12627237635875
H         -12.46638595005261    6.93115641361536   -6.21231715593979
H         -12.72131762445982    8.18472392989609   -8.30952421831894
H         -13.43734053841231    7.06082261259203  -10.36879430499191
