118
 SCF done       -204.702104439866          0.000917428219
C         -11.53313765876585   -1.76839935416355   -4.28563214269547
C         -12.90106367674613   -1.61559503048864   -4.11946036189057
C         -13.42736565697485   -1.13399470111800   -2.92936967314463
C         -12.59845901618588   -0.78489725959022   -1.87419553477054
C         -11.22979351941204   -0.93485810180392   -2.02754915631517
C         -10.69230173618315   -1.43247268562477   -3.23592548076010
C          -9.24448539207034   -1.50963491205835   -3.10999719656829
C          -8.36998755661621   -1.81515402744912   -4.11618651271144
C          -8.76225184368993   -2.10308381845489   -5.44104423179488
N          -9.00457389914201   -2.35901477182579   -6.53401284740205
C          -6.96459001651669   -1.89304382309716   -4.02068623360727
N          -5.82083422580002   -1.99887550592208   -4.05620704103146
C          -8.92324419960866   -1.16531389323821   -1.72472253506312
C         -10.13007530822635   -0.62465028939475   -1.12677654517448
C         -10.21401350030952    0.19006507363040   -0.02705725590116
C          -9.11063354131049    0.75615329720144    0.63863032065952
N          -8.26131225469067    1.27489942009828    1.21194137203827
C         -11.42545771294201    0.62741553064405    0.54377639223323
N         -12.37056412943140    0.98158795498109    1.09224266461036
C          -7.71178303110859   -1.42879570375070   -1.15653396135325
C          -7.28310553894100   -1.41132507924160    0.20318662144080
C          -8.04169075146900   -1.70861146500113    1.31837331486418
O          -9.34927603785070   -1.99757899104143    1.30755831584900
C          -9.95824204601985   -2.28630215021775    2.54648682317494
S          -7.09088107599365   -1.77650915499680    2.76352987614311
C          -5.64452354441509   -1.33515189870285    1.86857293241381
O          -4.45570117103681   -1.21247509686427    2.47838623892344
C          -4.47555579380294   -0.90327669938735    3.85460104346566
C          -5.89482617087573   -1.18769185051984    0.53831857101265
C          -4.92864792948209   -0.76393615099501   -0.46988726815228
C          -5.33736019744967    0.06748428889946   -1.48160485390968
C          -4.47170842119841    0.34085864127117   -2.55906985496261
C          -4.69869557979818    1.00378906071219   -3.75409054119243
C          -5.99313953679205    1.61501601214243   -4.17102258565342
C          -5.89869205763402    3.15355467427049   -4.17592933733717
N          -7.21252181281051    3.74595596843596   -4.36212028455581
C          -6.50953594151490    1.06464300279771   -5.51433768429377
N          -7.93019469976695    0.77016480069492   -5.39457857730513
C          -3.47301349278346    0.91981187724756   -4.51295866313212
C          -3.14270240758812    1.35548404444727   -5.74294154188683
C          -1.80070655813958    1.09843081879179   -6.33648111224600
C          -0.85422779356945    0.36047181855027   -5.44322284937488
C          -1.19635857506120   -0.06837224549704   -4.21383149993273
C          -2.49351154845696    0.17154329975489   -3.70857682364249
C          -3.11827546687977   -0.18674772806885   -2.52771049425613
C          -2.69837325824770   -0.95421606955048   -1.41863823109657
C          -3.58494999706009   -1.24565957504105   -0.42939667020929
C          -1.15927915053725    2.39835564573977   -6.76039757805427
C          -0.64828662924383    2.60191267403804   -7.96786506268200
C           0.00891206203798    3.82965219315667   -8.41701291942174
C           1.22615568172666    3.78466804161531   -9.02072440272467
O           1.96536464159218    2.67878344852045   -9.18591023226708
C           3.11685933546834    2.78968590138486   -9.99087639785370
S           1.79645277539233    5.37244833307687   -9.50094107829958
C           0.31768256061435    6.08523095805868   -8.96317948055970
O           0.08843595168820    7.39466602890398   -9.05030624753699
C           1.08149318997070    8.19305220049823   -9.65771252770900
C          -0.55337595220298    5.16028070037679   -8.39563365333287
C          -1.81631390670972    5.44320657505437   -7.82820746884341
C          -2.66089261194617    6.51800148461151   -7.97272253280041
C          -3.68717051600051    6.84025294446234   -6.98953567218842
C          -3.93736979772651    6.18522591646647   -5.80420463352802
C          -3.14109572723267    5.17649871758561   -5.23052685887934
N          -2.51926927051223    4.39638971723174   -4.65718840964241
C          -5.04643300085243    6.45373290285507   -4.98162895402472
N          -5.95846410820083    6.57003052887850   -4.29082970023844
C          -4.33241374747300    8.06707559803733   -7.41915765808144
C          -3.72471937064482    8.50009747127431   -8.62016477057752
C          -4.11024548785216    9.69235714610266   -9.21093512525214
C          -5.10603165017580   10.44402243479581   -8.60610803380596
C          -5.71289951702248   10.01337335907577   -7.43448827476604
C          -5.33215720863579    8.82667050935088   -6.82898450143076
C          -2.76664274879595    7.48964014584743   -9.04067872740071
C          -2.26963712731883    7.37573876101257  -10.31864068455441
C          -2.37202631884196    8.37951823447974  -11.30111078348893
N          -2.36953555756810    9.16444981645444  -12.14013526679724
C          -1.66229076356335    6.22577225352786  -10.84872724393865
N          -1.17259047145501    5.31229606444796  -11.34547207632776
H         -11.14168756756473   -2.14794728889608   -5.21483868442368
H         -13.56503333930444   -1.87924335366919   -4.92884237451070
H         -14.49625486036723   -1.02894784340584   -2.82080136664012
H         -13.02057684148487   -0.41532061790156   -0.95380262652542
H          -6.93097849882695   -1.75282226720749   -1.83341922541298
H         -11.00583654687383   -2.48505537021736    2.32990699861365
H          -9.87624128386722   -1.43490260774175    3.22905442647558
H          -9.49845167711563   -3.16368096121825    3.01193992971755
H          -5.02985699372860    0.02034628396441    4.04403840688189
H          -3.43620638635419   -0.77800685082631    4.15040874016332
H          -4.92765680950239   -1.71876303415694    4.43007725515711
H          -6.32150444223930    0.51194042392059   -1.45818282594281
H          -6.74591308712585    1.35057646321092   -3.42282177059264
H          -5.16679718129535    3.46531801455368   -4.93880623584552
H          -5.51661165126001    3.47499044522194   -3.20435208808954
H          -7.47483120062718    3.72866458977939   -5.34280588464604
H          -7.20178125506596    4.71858240773247   -4.07089386235294
H          -5.99947766224755    0.12642781943611   -5.75241589843256
H          -6.28663924749144    1.77903231057883   -6.32547927389896
H          -8.42287910348487    1.60144989705329   -5.08121263528922
H          -8.31303865762721    0.49111613116877   -6.29255012365682
H          -3.83989723171377    1.90163660496174   -6.36303765728462
H          -1.95397068540328    0.49478709090725   -7.24502516087929
H           0.13296642033167    0.19294882233644   -5.84672087100314
H          -0.48657264022065   -0.60578993422754   -3.60135309730346
H          -1.68547909206348   -1.32749331933762   -1.37923668196162
H          -3.29480574550365   -1.85984175282188    0.40846489738672
H          -1.10732469986047    3.14349461669491   -5.97943979601083
H          -0.64899988008930    1.80353673729256   -8.70056419743685
H           3.55379100557077    1.79421352634435  -10.03062836341221
H           3.83522865129454    3.49052437628385   -9.55181461349474
H           2.86253900409083    3.12397721677636  -11.00148227348679
H           1.25564515654212    7.87673657846162  -10.69066762008077
H           2.02176507137613    8.13447468987565   -9.10132203768971
H           0.70216314622497    9.21272689780070   -9.64302035599615
H          -2.13702722990809    4.68848137069728   -7.12371776514147
H          -3.64393829266622   10.04406208481233  -10.11668664229347
H          -5.41146002498349   11.37697603601170   -9.05477892280504
H          -6.48997062079238   10.61174606698437   -6.98371454347896
H          -5.81124829619534    8.50952943990974   -5.91723712594118
