113
 SCF done       -216.338167486523          0.000317681844
C          -3.23402816581183   -7.79809543053728    1.47205765688839
C          -3.63443303735578   -9.11756537722453    1.33152009423984
C          -4.31497001209029   -9.77204952463845    2.34980985570394
C          -4.62427860021134   -9.12224561498977    3.53538642143967
C          -4.23573523572467   -7.80133721714029    3.68557705789557
C          -3.53072083798368   -7.13644542954185    2.65508270275529
C          -3.20494580165836   -5.78983834280174    3.09808660879904
C          -2.64096779468242   -4.80525548939699    2.33637078917280
C          -2.35508285301986   -4.94721477795223    0.95827954194653
N          -2.11856126227968   -4.98378978795502   -0.16344934553297
C          -2.28096171566659   -3.50703576679529    2.75680462320703
N          -1.92112336824039   -2.43950745710831    2.97841969394812
C          -3.59056738895348   -5.70839664753031    4.50958008642937
C          -4.44653775731222   -6.86541906980361    4.78000377004060
C          -5.43492216256956   -6.94532287854369    5.71466802696094
C          -5.83345443927676   -5.88402634120209    6.56060591817404
N          -6.29389032441200   -5.04120350645905    7.18818185847315
C          -6.28625658020287   -8.06481631296457    5.85118215714551
N          -7.00424295232813   -8.94735046701426    5.99470792045960
C          -3.09363338475799   -4.79258131688505    5.38363369668466
C          -3.14907307626518   -4.83838233346729    6.80263698314502
N          -3.51972222057557   -5.90032776140480    7.50210147135394
C          -3.49106364450801   -5.52081968948762    8.79424206311060
C          -3.09579486683077   -4.10586371791074    8.92229004572175
C          -3.09149468050813   -3.69533130553726   10.34120396952712
O          -2.80673766468192   -2.62276074177816   10.81574378217577
C          -3.51065214264628   -4.93605562619860   11.02933766080959
C          -3.73474576343889   -6.02271084183533   10.04533548587809
N          -4.09606897417377   -7.16994560880262   10.67227989500401
C          -4.11112394863699   -6.87244070209352   11.94623372038023
C          -3.74736954884229   -5.49472054240893   12.24058268896334
C          -2.82458618130331   -3.67308211026055    7.66114924480013
C          -2.42080655162686   -2.39321856359739    7.14133105904021
C          -1.36221860191596   -2.23955815720771    6.33181392159155
C          -1.02640755594518   -1.03217808823896    5.62983807020646
S           0.62404559202234   -0.55599144593379    5.50769580169669
C          -1.85185599927586   -0.20656038771543    4.88022997139179
C          -3.26265496969890   -0.56587695098637    4.58545360839944
O          -3.87323819747493   -1.46498506998542    5.13948923024881
C          -3.82775162716226    0.23935624961247    3.52357797453888
C          -5.05907618198341    0.15965814755966    2.90736513629058
N          -5.15465431999011    1.16240552693351    2.00413761607838
C          -6.25921978828509    1.37679694852106    1.10265932721557
C          -6.00278488365655    0.70482611735555   -0.24377816942398
C          -4.02024637854177    1.89619684504192    2.01615154835286
C          -3.15951399554057    1.35557233082705    2.95029236166216
C          -1.84584003326358    1.81061944638774    3.35020242191233
O          -1.39549416386483    2.88441041316532    2.97993456994591
C          -1.14413644066900    0.85222048851029    4.23689511073652
C           0.23116350016799    0.80446345332225    4.48781890621635
C           1.37121584132560    1.50197590842006    4.00412249355013
C           1.39836295589012    2.59086726428984    3.19510992970362
C           2.59054376709599    3.08111399640950    2.61028966733886
N           3.80707121690474    2.87285412503727    3.09941680672178
C           4.65609729612153    3.52621444523449    2.28793378760596
C           3.93060216605493    4.21079288502577    1.20378447587718
C           4.85893896974269    4.86998351340669    0.27137385635531
O           4.58755636798718    5.47702520787300   -0.74283692856853
C           6.16718460792057    4.57672505269948    0.87733282791158
C           5.99949932367587    3.75681460766226    2.10065702056171
N           7.20323122514470    3.46177032108785    2.64288503797081
C           8.08586251834574    4.02592931885410    1.85199132664679
C           7.50920120040591    4.72978193136059    0.72776807376066
C           2.60949682316852    3.91571097094631    1.38094147308099
C           1.56045278921483    4.23184744904812    0.46791476529425
C           0.43724836628874    3.50835603061327    0.27960016112695
C          -0.54568688126330    3.80399303766428   -0.71249876199434
C          -0.33336277282608    4.28839283890337   -1.96356651247115
C          -1.36904699607492    4.88109878989332   -2.80805848620096
C          -2.72437108949457    4.74426076536969   -2.66951028989440
C          -3.37925776683237    3.96099856875802   -1.69926542517615
N          -4.00136648077852    3.34492377471173   -0.95437291639859
C          -3.67252330279177    5.34425184687125   -3.52701891986193
N          -4.50005544139830    5.79421089342720   -4.18240433982650
C          -0.68374990265050    5.65268190415207   -3.83222668791980
C           0.70676813867011    5.41373210864844   -3.73296455283588
C           1.59744714145226    6.05906282133622   -4.57489383151377
C           1.09186979448038    6.93167884508820   -5.52637211049535
C          -0.27430328067389    7.15395813242763   -5.63884224173608
C          -1.17453689093458    6.52257052645449   -4.79488063476058
C           0.93636746627970    4.43395251776594   -2.68363012936122
C           2.03546219776617    3.62976041817101   -2.58633844262611
C           3.16810432684871    3.74219764216019   -3.42393948121385
N           4.10107224971668    3.76645972165101   -4.09017532349369
C           2.14730948026971    2.51416458073000   -1.72897781849627
N           2.28679244715847    1.55936110399084   -1.10762335330563
H          -2.69603046317113   -7.30977346916571    0.67633517203469
H          -3.40545338982694   -9.64390541852482    0.41774127862362
H          -4.60616549917058  -10.80293191942989    2.21990898219441
H          -5.14214799863272   -9.64381507284226    4.32347404259803
H          -2.55015593708277   -3.94738717869573    4.98278003020692
H          -4.37853057331524   -7.61787739356807   12.67509717602897
H          -3.69622511667507   -5.06099142417897   13.21944977374814
H          -3.02670722697407   -1.54649001912074    7.43017699047023
H          -0.66836955167799   -3.06128354413881    6.19074958110982
H          -5.85473622882118   -0.54003720714731    3.07122900235766
H          -6.38281218665235    2.45213321536010    0.95508537171967
H          -7.16456871683684    0.97437446476585    1.56389260375669
H          -5.13321949750206    1.15012570613002   -0.71960443647582
H          -6.86207626380791    0.84216390630880   -0.89367034172298
H          -5.82782920625402   -0.36068007226146   -0.11298127138796
H          -3.88587516422384    2.73375247117537    1.36045399636653
H           2.32463655442793    1.05832702407030    4.26732277160073
H           0.47966588155404    3.09197965618896    2.93228786360230
H           9.13717442687326    3.94176090478473    2.06638455192326
H           8.05797034998084    5.24730582326425   -0.03392314110509
H           1.75977052217201    5.08778457597015   -0.16737614202049
H           0.20224864525492    2.68248606946891    0.93431220691319
H          -1.56721969480221    3.64698167044129   -0.39173787320754
H           2.66013981091349    5.90328850867693   -4.48509911183968
H           1.77241565937948    7.44599355641938   -6.18730825051291
H          -0.64409711798440    7.83462009079741   -6.39031768377107
H          -2.23059290393269    6.71604164444416   -4.88858227558071
