124
 SCF done       -232.482299293169          0.000530377025
C         -10.36207083574604  -14.34385329025021    6.23287741947187
C          -9.83705474038868  -15.42582013809554    5.54081405474787
C          -8.79839146237717  -15.26297182571970    4.63562241356886
C          -8.24872287765352  -14.01145580022065    4.39997484164950
C          -8.76877097902328  -12.92428216958810    5.08078516785593
C          -9.83116717553272  -13.08575263388390    5.99918085992622
C         -10.17763919063480  -11.78142841539569    6.55453119198586
C         -11.06031731229613  -11.54951646878195    7.57576548522494
C         -11.78974355044507  -12.56109529534894    8.23468529219879
N         -12.41369029510047  -13.33351497437091    8.81086208807557
C         -11.32398245216829  -10.28872972921199    8.15181673544448
N         -11.57790330487913   -9.30244717042078    8.68221701609363
C          -9.40106165510204  -10.79649979669567    5.81601226032234
C          -8.38202176835156  -11.52277659930978    5.07709535060398
C          -7.15359733264215  -11.02912385906347    4.71755906332891
C          -6.70376931765502   -9.74948867339508    5.10467044246955
N          -6.28811065479706   -8.73944501737827    5.45859465123263
C          -6.18429448792352  -11.76011048081534    4.00635192833718
N          -5.37278629200032  -12.29242908625751    3.39204938501130
C          -9.71128045809644   -9.46273906587693    5.74041302392328
C          -9.34457928640715   -8.53174438395149    4.75399413993106
S          -8.72537091892413   -8.91923576748779    3.17866301813668
C          -8.65038803958426   -7.25182922859090    2.70937137052916
C          -9.17401357508533   -6.43344325596269    3.71461957370959
C          -9.54242804460654   -7.14439814596714    4.88072560115256
O         -10.02073653451491   -6.71170643759736    6.04891584301916
C          -9.63691751364483   -5.46382645703304    6.60768008119676
C          -9.41717938373743   -4.97025535261012    3.52803907491485
F          -9.46786506437119   -4.59027331650251    2.24289987440902
F         -10.59549966248998   -4.58261178732048    4.04731202614197
F          -8.47809076561748   -4.18571758681534    4.09861139538893
C          -8.05093636810562   -6.89809220962050    1.47576517866002
C          -7.51214746123156   -7.81540881186690    0.63315007789314
C          -6.80451679743303   -7.55327692326715   -0.58206941459308
C          -6.14366977707141   -8.60246611179318   -1.19335286253206
C          -5.35523179807417   -8.37887943986466   -2.33423180097591
C          -4.55584695986599   -9.24147116269402   -3.07433265178791
C          -4.39008255014843  -10.70427591351270   -2.84511214383567
C          -4.72694374136027  -11.52667150145958   -4.10483016092748
N          -5.17845442932139  -12.84240443534319   -3.70251602169601
C          -2.98021079481310  -11.02305181024214   -2.31215143127356
N          -2.90082067349503  -12.41099226409085   -1.88408883085114
C          -3.91892251413995   -8.43993341340286   -4.09394139347838
C          -3.00233530474991   -8.74297506686449   -5.03226141843493
C          -2.42875369697036   -7.70723817083872   -5.93225700069912
C          -3.04141698381821   -6.34403587215210   -5.79289378478254
C          -3.95853779071515   -6.05725099907906   -4.85358241703954
C          -4.40695813015994   -7.05767375577376   -3.95655045547387
C          -5.26830976107032   -7.03055461193526   -2.88208496109184
C          -6.00040168086844   -5.98450957902564   -2.26936067381446
C          -6.73385391618284   -6.23835825607361   -1.15894432588558
C          -2.42433172566486   -8.09844256888681   -7.38412061432275
C          -3.17961013034973   -9.06699772212618   -7.91028762018244
C          -3.17348743941814   -9.44045558795420   -9.29766597872886
S          -4.36540254543292  -10.54604868981919   -9.88478976871869
C          -3.73486121774033  -10.48981869910819  -11.49568075754254
C          -2.64366698424484   -9.63251660359106  -11.55676890168036
C          -2.31148973051960   -9.04901970996699  -10.31518240820079
O          -1.26954154877383   -8.19068783728436  -10.12200098686902
C          -0.01158069348288   -8.82186613372250   -9.92164922799584
C          -1.92586388752344   -9.39457684456748  -12.84377718640704
F          -2.75695568677251   -8.96431639925254  -13.81582085812668
F          -0.94100853013700   -8.50329033914086  -12.77397951853345
F          -1.37258144163516  -10.53259586173130  -13.33044838416138
C          -4.23558184943891  -11.29665086952146  -12.54805531925947
C          -5.21782280665005  -12.21912141129079  -12.41796282016634
C          -5.66139908832145  -13.06465318029934  -13.47305691630705
C          -4.93495058537557  -13.52689648112780  -14.52900786015092
C          -5.52407312698566  -14.06459701943833  -15.75703568395069
C          -6.79056153725254  -14.55195385462914  -15.92371788703419
C          -7.76300692702340  -14.67472020179290  -14.90751932520651
N          -8.59957306540321  -14.81448919020746  -14.13396917873898
C          -7.28620057089680  -15.05621696708567  -17.14640107014209
N          -7.75102174067361  -15.47991192945197  -18.10598573563538
C          -4.49294583843514  -13.99271441840037  -16.78208469314930
C          -3.27127470779371  -13.62373447357369  -16.17465229973524
C          -2.12631916887895  -13.45133693751770  -16.93533911785003
C          -2.20494060009326  -13.66062285691557  -18.30368089730945
C          -3.40017518433933  -14.03784446992285  -18.90077482733619
C          -4.55443114439572  -14.20563596612629  -18.15082806350460
C          -3.48557014068999  -13.49414710431013  -14.74183059982117
C          -2.50526340561516  -13.59595303325204  -13.79476299200989
C          -1.13206737401560  -13.72768867629030  -14.09969750689739
N          -0.00592983178446  -13.85018768804870  -14.27984908366835
C          -2.71867303211970  -13.66422425180724  -12.40249394032857
N          -2.80747907575526  -13.75345691075438  -11.26153819379093
H         -11.16938578957100  -14.49068397259001    6.93132864034240
H         -10.24759573815139  -16.40941929193849    5.71090315800063
H          -8.41137105901105  -16.12022147531998    4.10617000184088
H          -7.44385679759425  -13.89200276322925    3.69247566587791
H         -10.38836822113150   -9.05571262279389    6.48041208841330
H          -9.69851622185350   -5.60766002699952    7.68603231818965
H         -10.32309447320382   -4.66703532934167    6.31696636633874
H          -8.61416022823200   -5.20078487825139    6.33430501994253
H          -7.98162957579858   -5.84886160484386    1.24255732555016
H          -7.57335636832200   -8.85974674497359    0.91934579845643
H          -6.20832577551131   -9.59438599859499   -0.76942020263980
H          -5.10835207738374  -11.01745244048948   -2.08120152461216
H          -3.85023206697367  -11.55122381702404   -4.77318618372869
H          -5.54653039353391  -11.03727938411087   -4.64292724257937
H          -4.43570624002962  -13.29558285719354   -3.17718615501384
H          -5.39756727459999  -13.41096367746600   -4.51278899206220
H          -2.74727132232052  -10.30666002833406   -1.50548927858084
H          -2.24230174931912  -10.87759623391262   -3.10597268244254
H          -3.50793108495510  -12.56078034500812   -1.08374790040575
H          -1.95468428757554  -12.63683932263285   -1.59588324031669
H          -2.60879509504172   -9.74237992554772   -5.14880859278092
H          -1.36658190459925   -7.60937947971901   -5.64140325333768
H          -2.69252721412308   -5.59550494294764   -6.48702205552592
H          -4.36441735674517   -5.05986859525412   -4.76880353422374
H          -5.95875059644303   -4.99081380929885   -2.69004947681978
H          -7.29166803032814   -5.44197915533655   -0.69308245240129
H          -1.78656226894380   -7.50364785694424   -8.02029164191711
H          -3.86289847926805   -9.62895477856023   -7.28703960484486
H          -0.01967416936734   -9.41814437321763   -9.00352548744884
H           0.71169823154990   -8.01464364675490   -9.83628738307294
H           0.25880033803673   -9.46270597945840  -10.76420749135370
H          -3.77300979060127  -11.15858138514524  -13.51585925117724
H          -5.75630011674792  -12.28545454869013  -11.48152061855310
H          -6.71174007041536  -13.32259300793296  -13.43905990137246
H          -1.19705411432479  -13.14519256459524  -16.48312936147995
H          -1.32362820090579  -13.52447683787560  -18.91142094258008
H          -3.43668315298407  -14.19707136602767  -19.96753293496013
H          -5.47580283919609  -14.48696152334315  -18.63345695083670
