108
 SCF done       -188.547779272093          0.000420935907
C         -16.24392469741665  -12.93952313414901    0.65722254597300
C         -16.14619183805744  -13.79165862429025   -0.43309138224113
C         -14.97160020570765  -13.88751291445334   -1.16541982201600
C         -13.85661828301544  -13.13636363817907   -0.82457788487654
C         -13.94486424652480  -12.27726618132192    0.25753993088822
C         -15.14179653897699  -12.17371387632778    1.00262266853452
C         -14.95370033744575  -11.19400194295706    2.06617260474407
C         -15.84572140182288  -10.90466687930267    3.06378686839941
C         -17.10744922050020  -11.52074191474808    3.20087127490469
N         -18.14633150864319  -11.97945800485147    3.36812213629721
C         -15.61877043674721   -9.98843786545722    4.11234064688263
N         -15.49898428942881   -9.26284905170556    4.99418417098790
C         -13.64500627699222  -10.59005836427562    1.84946710809514
C         -12.94807644138302  -11.41637565446106    0.87396644939993
C         -11.59032167310271  -11.54227736970118    0.74339597391778
C         -10.67392558078132  -10.98155050215168    1.65936089904746
N          -9.90747477019555  -10.60605371041540    2.42647704123173
C         -10.94953268082455  -12.28854027656682   -0.26290536344659
N         -10.36172503233204  -12.82026274758664   -1.09463552281536
C         -13.27262946159790   -9.36224296449983    2.33091884587087
C         -12.24965116862127   -8.52444849111562    1.84985520652621
O         -11.53719471359721   -8.77711101187501    0.71707467222356
C         -10.68912782944070   -7.73625909804250    0.57728565204414
N         -10.83250740395679   -6.83030584801965    1.52788759186149
C         -11.79644051151196   -7.29507209272753    2.32623771600147
C          -9.75735327260439   -7.75673544433664   -0.48732019823334
C          -8.84027523285001   -6.78088945211010   -0.68511078162676
C          -7.80357580547918   -6.78599118923769   -1.67642153460435
C          -7.56001097737960   -7.87905145986872   -2.48465176039526
C          -6.48926523868094   -7.87036880503266   -3.39410546378510
C          -6.02146406280451   -8.84440045967793   -4.26988891810076
C          -6.56289766327235  -10.20423035535067   -4.54694358408669
C          -6.86745062636275  -11.01721077837727   -3.27336919831105
N          -6.58521742098254  -12.41915326486647   -3.52396469805916
C          -7.80858205899779  -10.09929648514001   -5.45208915980759
N          -7.42058811480257   -9.57523131339829   -6.74818605284693
C          -4.87897109317176   -8.27424305899178   -4.94471085696657
C          -4.06244154495772   -8.79232455985917   -5.88059069697843
C          -2.91037853443550   -8.01835960156412   -6.42327467150161
C          -2.78341540581276   -6.62751844093474   -5.88065879507254
C          -3.61403286766402   -6.12486356230392   -4.94891484182707
C          -4.67424892852822   -6.91107139644874   -4.43587823949993
C          -5.65394434161528   -6.67715447636777   -3.49376174523204
C          -5.93751037850959   -5.56120067800284   -2.67003319806187
C          -6.96817157860101   -5.62260108546232   -1.79186403524190
C          -3.00174513174352   -7.97390026601038   -7.92516058775503
C          -2.11526270623789   -8.55361071854264   -8.73833035182759
C          -2.18122492267059   -8.51812971348762  -10.16773001653688
O          -3.14618315605363   -7.84415468327116  -10.83480742850559
C          -2.88906847070342   -8.05369844238102  -12.14786126189354
N          -1.82637130225413   -8.80093252184215  -12.34419595947922
C          -1.36642942529159   -9.10492052175735  -11.12096513486803
C          -3.73445184739238   -7.49742770811750  -13.14397972316036
C          -3.53198201105248   -7.74471658734667  -14.46057987071352
C          -4.25917254329758   -7.20368863271671  -15.55365387452932
C          -5.53043905548030   -6.70862851383573  -15.61068703248010
C          -6.00632104864331   -5.83428741352165  -16.68361914187615
C          -5.47041426572510   -5.68301640070608  -17.93267319471860
C          -4.36859648573531   -6.39743003898040  -18.45264645180514
N          -3.48953154636974   -6.93643800347749  -18.95724958363698
C          -5.98881726074299   -4.80898192647920  -18.91347649580523
N          -6.35489824772229   -4.12026360995470  -19.75517033233258
C          -7.18628325378898   -5.14925687493589  -16.17404478578752
C          -7.53434002806054   -5.70903187772509  -14.92392248269424
C          -8.61984140375584   -5.22489103163708  -14.21201419089872
C          -9.35615983105458   -4.18263550214364  -14.75437302304912
C          -9.02020300930756   -3.63652747593628  -15.98519206963738
C          -7.93551244740151   -4.11159565259755  -16.70672965196994
C          -6.60872160287978   -6.79278820111597  -14.62938122686555
C          -6.84958694343264   -7.82258709602251  -13.76161400321728
C          -7.94799040154686   -7.86754548188539  -12.87760026538024
N          -8.80342236184618   -7.95038731557381  -12.11671490334727
C          -6.07786242719984   -9.00131414504830  -13.68269865464138
N          -5.52617635474237  -10.00325879823986  -13.59479113599157
H         -17.16450819064332  -12.87923368714346    1.21396276306933
H         -17.00071047801610  -14.38790490337947   -0.71438723711586
H         -14.92240487670358  -14.55534965256778   -2.01193807337409
H         -12.94812249484649  -13.21572892108305   -1.40013690698814
H         -13.87131306923235   -8.90935861979828    3.10799734092137
H         -12.12032140358890   -6.76097874203598    3.19626016457156
H          -9.81187135845490   -8.63550160373682   -1.11268898054094
H          -8.87829184196140   -5.92955817340222   -0.01860072859065
H          -8.17379802345190   -8.76062825607216   -2.40686941864290
H          -5.81072564440831  -10.76869908029562   -5.10411507923202
H          -7.90756104386635  -10.84115001472475   -2.95396920358871
H          -6.20526450836789  -10.68865303855174   -2.46756772606747
H          -7.22374741823140  -12.78865324696126   -4.22072549633496
H          -6.71298102996772  -12.96087849759708   -2.67649441240370
H          -8.57071293342583   -9.48772743483165   -4.93924730753037
H          -8.22134237036037  -11.09898513784458   -5.61048230082704
H          -7.12289196012901   -8.60903790309831   -6.66118234169622
H          -8.19681905559609   -9.60799574663769   -7.39893728629206
H          -4.20902308865817   -9.78463295017456   -6.28262704048752
H          -1.99623970478019   -8.57545072933900   -6.16496961145134
H          -1.97394543243034   -6.03964305015182   -6.28603058803623
H          -3.48090310769361   -5.11853769117363   -4.57894209553397
H          -5.32146913422219   -4.67712842700099   -2.74364006955326
H          -7.18790767695318   -4.78331855187912   -1.14864993346918
H          -3.84312268397192   -7.42932799708835   -8.32850063133028
H          -1.27324357290989   -9.10637966906276   -8.34490533054720
H          -0.49713452563938   -9.71374594722909  -10.98127556556432
H          -4.51924051452035   -6.84673482504184  -12.78470326989428
H          -2.66892720937235   -8.34632107419220  -14.71157209279142
H          -3.67633452337433   -7.12478104889677  -16.46278010207722
H          -8.88631542968937   -5.63532286028246  -13.25160765351137
H         -10.20115970714868   -3.79151740571971  -14.20873419873743
H          -9.60840384862137   -2.82669866292275  -16.38870419700763
H          -7.68598095081075   -3.67105326847265  -17.65771415351663
