102
 SCF done       -196.913131995091          0.000513382000
C          -4.04131069818039  -13.93081552989013    8.62868517481383
C          -4.73743974892551  -15.03592554535751    8.16414600693541
C          -5.19391859511828  -15.09735816995285    6.85372352137888
C          -4.95986305647939  -14.05851253854210    5.96519644356895
C          -4.26188920419458  -12.95013724264144    6.41555036124044
C          -3.80605996047587  -12.88053930213248    7.75345352460927
C          -3.13538906032178  -11.60682034580474    7.95626842287251
C          -2.40543358917125  -11.23489103945888    9.04973188904514
C          -2.21069741554279  -12.05219769623668   10.18628849450194
N          -2.01700296190498  -12.66466362941698   11.13617946029090
C          -1.70246428100488  -10.01962782092645    9.17722730564279
N          -1.09444750221480   -9.06128586557747    9.34849353361373
C          -3.38971310080463  -10.80726980155603    6.75499765230917
C          -3.85205232006456  -11.73967552328460    5.72232103976545
C          -3.69469562874537  -11.59684421478563    4.37706556024522
C          -3.04734202400045  -10.49445887595275    3.77351494077857
N          -2.45568339203726   -9.66534668806606    3.24648033328072
C          -4.05616777242989  -12.58998236444455    3.43997725431886
N          -4.32331449566594  -13.37414912847751    2.64727601129697
C          -3.36949754371156   -9.44870328459446    6.71649008591627
C          -3.99172263526480   -8.62937981733394    5.72974172006446
N          -4.91891960998690   -9.10122085234903    4.91213742823691
C          -5.35797614596913   -8.04231817181802    4.19989442078329
C          -4.68180780409298   -6.80788692431347    4.60644641952470
C          -5.16095509826376   -5.67379796526162    3.79826021862426
O          -4.85695190117806   -4.50496120200852    3.87660346552750
C          -6.11853680021774   -6.31700191087814    2.87306282715839
C          -6.22012141359411   -7.76380892325663    3.16903187484653
N          -7.08941836629441   -8.36796512485256    2.32173565968233
C          -7.51032848094302   -7.41521721907745    1.52912249120673
C          -6.93683572145185   -6.10792755661068    1.81393943646533
C          -3.78312894947530   -7.16831891258485    5.58528230681134
C          -2.82168245291769   -6.39955929490950    6.29274177493345
C          -2.78657053765402   -5.04228773900307    6.21841040739323
C          -1.85306025918956   -4.20036574082220    6.86947083216356
S          -2.03488091237561   -2.48286235891031    6.74850253668994
C          -0.62043063887658   -2.20194109939871    7.72853056903925
C          -0.01993171193102   -3.41395814730002    8.10161661777700
C          -0.74338544899868   -4.53904693565114    7.65579241933822
O          -0.46893450141539   -5.82891951790025    7.96711896297517
C           0.10094595603597   -6.04531500895427    9.25593937941343
C           1.61488754975720   -5.83446957047144    9.28341750726078
C           1.99738879256461   -4.57840244794413    8.50212558460386
O           1.14993292426427   -3.46657716203209    8.78018284124131
C          -0.37043447523846   -0.83150486991259    7.95809046483194
N          -1.27191933471315    0.00320044073029    7.43122047473969
C          -0.88522320833523    1.24161471912160    7.74991787557951
C           0.37245987174869    1.22316942068126    8.51043335562791
C           0.78046640846205    2.59608905311509    8.86783853929307
O           1.78479374811576    2.95913294320601    9.44720555504606
C          -0.31668668329678    3.40687070860657    8.33062636582896
C          -1.30447228915430    2.55114756162501    7.64000961637976
N          -2.31843022872097    3.29384573786836    7.14953149654426
C          -2.03698157194473    4.53243843516063    7.49338145802668
C          -0.80735519807763    4.67288858210445    8.23663478003330
C           0.70774792821244   -0.10212696418047    8.67022481104932
C           1.81353660209864   -0.66403418722351    9.35571842968462
C           2.80523726159277    0.07941926484517    9.91204612204649
C           3.89858155069133   -0.53803486873972   10.55771690777752
C           4.85124861028912    0.09221169393987   11.30638509445779
C           6.16147320493471   -0.45794186006639   11.62697178028378
C           6.55382677701346   -1.76717963096671   11.52099919246749
C           5.73647504879825   -2.83366881788653   11.09232153462433
N           5.13490217249530   -3.74863802604274   10.74310134857052
C           7.84486398974119   -2.23521017799874   11.84639465077444
N           8.87114691597753   -2.68519634416783   12.09435183976270
C           6.99192118126613    0.66215192957271   12.04617700250941
C           6.19815826592189    1.83253773177838   12.09317488496912
C           6.76012736064479    3.05199656680743   12.43204929547626
C           8.11432016645583    3.09827154500644   12.72800285893993
C           8.89239798373012    1.94950965405675   12.69458283390527
C           8.34242251602450    0.72293920665470   12.35470771656837
C           4.82349746409424    1.47023513080082   11.78165228983563
C           3.70591905722839    2.19214856078887   12.09934097770162
C           3.74167205336898    3.51747672602177   12.58353485640826
N           3.72150270451032    4.59454311551815   12.97801158029815
C           2.39780989980653    1.65793774098448   12.13334754649880
N           1.33728459029472    1.24511113014259   12.27947576907596
H          -3.70332841390455  -13.89462953114442    9.65142764293018
H          -4.93155780495209  -15.85779175688146    8.83593035157911
H          -5.74192749807499  -15.96519280922416    6.52055916011837
H          -5.32787414585017  -14.11131277371220    4.95356718011206
H          -2.94515222051538   -8.91585908950824    7.55667661883318
H          -8.22362597791653   -7.62956979752728    0.75233076413730
H          -7.14944189348975   -5.20505968217680    1.27679230136185
H          -2.09993415721775   -6.92427417690447    6.90044503545053
H          -3.52714957760121   -4.52735190282850    5.61912378902847
H          -0.38495545135497   -5.37834357809137    9.97841019199622
H          -0.14617950405166   -7.07849057138652    9.50344615546901
H           2.12827996828818   -6.68309643064392    8.83256272387636
H           1.93237145739226   -5.74663677429269   10.32191547556917
H           3.00037474052157   -4.25016829810150    8.78532406794308
H           1.97909428765993   -4.78103780327322    7.42487240713640
H          -2.69878135223744    5.33427315560763    7.21575010837984
H          -0.40416616313411    5.59188613084913    8.61338207489798
H           1.83861580889186   -1.73576330599741    9.46078920601579
H           2.78309371699548    1.15635449142035    9.82369703412424
H           4.02067530605126   -1.59532252843851   10.36717995504299
H           6.16658058819430    3.95140620647606   12.45509893603937
H           8.56735013194059    4.04290550463182   12.98729903308929
H           9.94352940642595    2.00908255305466   12.93202410236757
H           8.96251492242543   -0.15809487236255   12.32913166081266
