125
 SCF done       -223.602852594711          0.000295806550
C         -21.92052125907152   -7.82506704868315   -4.44318108494593
C         -22.30792350793008   -8.76271379287577   -3.49703475800812
C         -21.74376805168178  -10.02992106623545   -3.47024087740125
C         -20.78060443552846  -10.40018365890878   -4.39695106407619
C         -20.38648117153394   -9.47206327101050   -5.34542609377456
C         -20.95100882409693   -8.17670502175404   -5.36887491183785
C         -20.33626368599761   -7.41231193842173   -6.44858751725034
C         -20.69594761418133   -6.14949488839497   -6.84200712132091
C         -21.73994247679864   -5.40458296619712   -6.25477854967417
N         -22.57388133120407   -4.74249417310439   -5.82544482331616
C         -20.11241832013205   -5.42589543257492   -7.90219639238616
N         -19.68774724467658   -4.77797407047656   -8.75049352622663
C         -19.27038511829598   -8.24045801367056   -6.99328016564821
C         -19.44921579003839   -9.57950874451405   -6.45196062372755
C         -19.06568936267353  -10.74721958534140   -7.05838013289493
C         -18.45574585138020  -10.79867388355598   -8.32925688703263
N         -18.01561174398987  -10.88117218484065   -9.38633108447183
C         -19.32534086744438  -12.02856420594028   -6.53415217910739
N         -19.48962844655899  -13.09500359297224   -6.14197697315445
C         -18.24653101068713   -7.78029047652289   -7.78057335777824
C         -16.97045433908721   -8.34166313034589   -7.97709174003829
S         -16.21773628467260   -9.48651318582588   -6.88772909051510
C         -14.75787936450670   -9.49227542060790   -7.82606476536656
C         -14.86315517348836   -8.64016543338015   -8.91430252205583
C         -16.08094022391612   -7.98451453176911   -8.98235099073280
C         -13.65900533524863  -10.29722317067116   -7.45246195239128
C         -13.53501401217430  -11.11357985028020   -6.34348482437629
C         -12.31859843113572  -11.78222529836153   -6.28100367523962
C         -11.48116169142619  -11.50176866105382   -7.34531851887382
S         -12.22232775078632  -10.36981579879148   -8.43855397294005
C         -10.19305451229009  -12.02960365674243   -7.60299508291942
S          -9.42382102637122  -13.10971209054682   -6.47283900648944
C          -8.03039506223562  -13.27224717303882   -7.50649570440149
C          -8.18763648597704  -12.51663443457581   -8.65494698698599
C          -9.39005590588346  -11.81982282745789   -8.70707142079771
C          -6.92019070053223  -14.08367986616101   -7.16553038152401
C          -6.78801498328102  -14.74147680363971   -5.98718214914631
C          -5.69369040364858  -15.56192361827988   -5.62203291367696
S          -5.63337942819856  -16.20623294841297   -3.98920051612516
C          -4.14989271837059  -16.98896947410944   -4.33894524755305
C          -3.72963101265090  -16.77294393966196   -5.65359811310099
C          -4.59727683451459  -15.96626294550796   -6.37274350511692
C          -2.42588136911810  -17.48889599067486   -5.92189701734650
C          -2.59310009995811  -18.55668279093904   -7.00680392030978
C          -1.31428811655198  -16.50527545364547   -6.29672219197353
C          -2.17273897150708  -18.11583619759896   -4.57022847208871
C          -3.20049245756976  -17.79943493018272   -3.67913415803157
S          -2.94651241657253  -18.47231822154914   -2.12363745705544
C          -1.43960094006971  -19.19393858980513   -2.66603926282420
C          -1.18532478319974  -18.90402522369839   -4.00019641751349
C          -0.66757543326399  -19.93272554456799   -1.73579260543952
C           0.48762837439744  -20.58063356347065   -2.02840040871124
C           1.28725222748345  -21.27686779392302   -1.08608312768393
S           2.72178142015139  -22.10192678302804   -1.63412449271931
C           3.11504627690703  -22.60267979903304   -0.01476298275138
C           2.16644904627543  -22.14578501185466    0.87967633832598
C           1.14681019489639  -21.41105539750554    0.28369779447257
C           4.28153052605164  -23.36002375466364    0.25354851768442
C           5.19096936507120  -23.87093736286198   -0.65307794600423
C           6.24162331502024  -24.55955973669584   -0.05714424748688
C           6.16839551060783  -24.58830047135131    1.32393449166734
S           4.74883581971419  -23.74646513901491    1.88350496333754
C           7.08539146418840  -25.17394350570807    2.23090970314355
S           6.91455284490783  -24.99165781565490    3.94575373662616
C           8.37004289714423  -25.90897516692787    4.24239819614964
C           8.92682414644175  -26.33037056555285    3.04259094442731
C           8.21610095532167  -25.92098902752162    1.92651253197002
C           8.83727071675496  -26.06404032618851    5.56165883109701
C           9.93162310529106  -26.79175847600492    5.92812543208073
C          10.41365896576943  -26.93202906955210    7.24677170006801
C          10.23789793329023  -26.09434052946092    8.32045448542405
C          10.38550025054161  -26.50753546967675    9.70981646921645
C          10.99119152231351  -27.64109813061484   10.18669528158899
C          11.63539712205460  -28.62652564284121    9.41010259117624
N          12.18124082970452  -29.47266813939954    8.85698920565665
C          11.09536456915503  -27.96489250363645   11.55594056244978
N          11.22018956416985  -28.29269558774912   12.64919497320926
C           9.75309178271092  -25.47879977966242   10.52691869382723
C           9.37317824059585  -24.40462817127070    9.69199260329436
C           8.72007776045688  -23.30048231979512   10.21360137639391
C           8.45386127148998  -23.27046543957321   11.57429423011075
C           8.83764805158480  -24.31821387666265   12.39855860936501
C           9.48857718980147  -25.43084542150964   11.88643994397918
C           9.80557818482935  -24.70334267661358    8.33429972950660
C          10.01839434445012  -23.76478137492255    7.35792696983292
C           9.66368815048818  -22.40624892658875    7.48163210187703
N           9.38237292063341  -21.29347372490770    7.51261468703382
C          10.68612064815443  -24.00895696871563    6.14085212139538
N          11.25845685902223  -24.11984320718752    5.15183208680192
H         -22.36903965469129   -6.84538952266383   -4.44545741109484
H         -23.05941789064615   -8.49735042783287   -2.76915347294190
H         -22.05690443093725  -10.73913240928823   -2.71929741879022
H         -20.34387746464314  -11.38537228602166   -4.36622264173410
H         -18.38049316748357   -6.82173513054600   -8.26560815658147
H         -14.06164873558501   -8.51164490966057   -9.61972438958538
H         -16.34680687235718   -7.28386828484138   -9.75362601088714
H         -14.31747780762523  -11.21039265919645   -5.61150329741848
H         -12.04036808045556  -12.46215591727129   -5.49558642131974
H          -7.43990402958376  -12.47829620902051   -9.42695773848589
H          -9.68763665773283  -11.18136724632873   -9.52030133161918
H          -6.14429986378615  -14.14827610813406   -7.91555018315815
H          -7.56934244943551  -14.63230064066760   -5.24534345127665
H          -4.45887183030412  -15.68130592467581   -7.39948492918882
H          -2.84973970455087  -18.08996330752863   -7.95459192645504
H          -3.38459676737033  -19.25124649124585   -6.73447092639615
H          -1.66729649039582  -19.11345955335762   -7.12873764903746
H          -1.55429078627932  -16.00961238414906   -7.23412555359766
H          -0.37066534173786  -17.03307690768346   -6.41046168041893
H          -1.20047439098309  -15.75036110994853   -5.52200603116919
H          -0.30845706656643  -19.25165124580054   -4.51452832394038
H          -1.04986904784652  -19.95986834149418   -0.72511539992147
H           0.85651982301836  -20.57843237168435   -3.04420836592590
H           2.22963992250310  -22.34898172495074    1.93445185674328
H           0.33118108049128  -20.97887062769673    0.83383317039663
H           5.07997192345525  -23.73757413546044   -1.71461546289244
H           7.04148478360996  -25.01742136318749   -0.60951505254436
H           9.83402489429589  -26.90354850276814    2.99151730258698
H           8.50494033862054  -26.15125610380381    0.91745235963386
H           8.25045977130972  -25.57354103722461    6.32868274647629
H          10.43158239779482  -27.38722260784301    5.17773880170246
H          10.94801882179357  -27.85397294585871    7.43530481709578
H           8.41020737213350  -22.48406040515969    9.58166788900514
H           7.93984512060534  -22.41949278510416   11.99445270291672
H           8.62380831473234  -24.27245640572015   13.45549491786909
H           9.77254198085822  -26.23732009111655   12.54192267133643
