114
 SCF done       -215.837731637511          0.000351014249
C          -6.17703594451198   -2.66409313838708    7.84480763023680
C          -6.13022183189659   -1.46459614647758    7.14972138251413
C          -5.58138446937513   -1.39385361897938    5.87730677643892
C          -5.05441174133839   -2.52132752848078    5.26538612897391
C          -5.09643429692735   -3.72402930797873    5.94987702260153
C          -5.66368577003574   -3.80167374759048    7.24211083858434
C          -5.59039621312300   -5.18135150220257    7.70906606266709
C          -5.94111645887758   -5.62586556073130    8.95663701174417
C          -6.42662726300423   -4.79260264601300    9.98647572484045
N          -6.82649474756482   -4.17583534719582   10.86818942882345
C          -5.83623988748468   -6.95750967175073    9.40928891659040
N          -5.77692738533188   -8.01764855170856    9.84749456068942
C          -5.09447202824442   -5.97473652751820    6.59236427165421
C          -4.59228566931964   -5.04064007079364    5.59438810372965
C          -3.59335131719643   -5.29347163872628    4.69157892462617
C          -2.88949156606967   -6.51481986957771    4.63407966038098
N          -2.25695554016443   -7.47204965777783    4.60023962664979
C          -3.08710414242903   -4.33701793071558    3.78946929605310
N          -2.65409405819510   -3.60569269658899    3.01779242240369
C          -5.20290991499912   -7.33628293673721    6.49471023620019
C          -5.17809450827430   -8.14361709099306    5.33957656440327
S          -5.51038683755896   -7.56743821625809    3.72093776684949
C          -5.36342712866191   -9.16910373522824    3.07016354407155
C          -5.08346776498543  -10.08788573605669    4.06841207563299
C          -5.00629075882189   -9.52098655247672    5.33025576180384
C          -5.51603093494379   -9.41278813318650    1.68568143742522
C          -5.83733175354938   -8.51523103875294    0.68496489570517
C          -5.88761426699309   -9.08987526624374   -0.58039689409947
C          -5.59827253005416  -10.44296554163429   -0.58112388520034
S          -5.27266387331250  -11.00752891953818    1.02942599980487
C          -5.52756436989053  -11.32244771972367   -1.69332954244657
S          -4.99314669618887  -12.96495700828699   -1.50863544547993
C          -5.15559076511974  -13.26810639232643   -3.21485112432083
C          -5.61391073939362  -12.13660711842862   -3.86485428712893
C          -5.81945618997094  -11.05174980087311   -3.01812689523020
C          -4.79790316058498  -14.54352176869527   -3.72534319361460
C          -4.85707171864154  -14.91984049168048   -5.02492897530243
C          -4.43916812296573  -16.19656249283329   -5.48675412772390
O          -3.93371043146161  -17.10795207685343   -4.58669703701115
C          -3.60077413890537  -18.18939844206925   -5.30962200395143
C          -3.03771171572559  -19.47760465561053   -5.16901750867118
C          -2.59522614207886  -20.07510475941453   -3.89528518024585
O          -2.10235526486965  -21.17826557320269   -3.76734564805957
N          -2.79265384121174  -19.25862965618801   -2.83397853262693
C          -3.02471168851673  -19.97636113423234   -6.48132481686290
O          -3.54188770240876  -19.07278474966671   -7.36989851101104
C          -3.88840082969653  -17.98845292463526   -6.65752212622912
C          -4.43080221843696  -16.70398942418920   -6.77965619057961
C          -2.58024132556169  -21.19941668808549   -7.04849392798207
S          -2.75994438639429  -21.42236822844393   -8.76766861122200
C          -2.03301542028725  -22.99795653580409   -8.67540226830842
C          -1.68279567912233  -23.30438520254143   -7.37213303929039
C          -1.98956860813373  -22.29987021010981   -6.46091506813447
C          -1.85493761956367  -23.80928986851457   -9.82757190028332
C          -1.24750929903661  -25.05043153925159   -9.89695299099247
C          -1.23629866712884  -25.59049053078389  -11.17799851078284
C          -1.83592218919540  -24.77966959796009  -12.12286354712286
S          -2.42089429165107  -23.30965315796557  -11.39284413766382
C          -2.00269064167526  -25.03414541229507  -13.50518222554662
S          -1.40900720164300  -26.49358934464114  -14.22777177457836
C          -2.00772076497452  -26.01956111357153  -15.79881398805725
C          -2.63355386781985  -24.78147635768718  -15.72255829532643
C          -2.62921783039862  -24.23423787891057  -14.44995348768825
C          -1.83083037888091  -26.88187465603724  -16.89661274383921
C          -2.25282108570057  -26.63335076430594  -18.17211276061658
C          -2.04573193511620  -27.56089332927955  -19.20551909688043
C          -2.52063380830052  -27.48467580818140  -20.49262554812978
C          -1.97141647647603  -28.22697295428079  -21.61737369372855
C          -1.17564656151662  -29.34207348878708  -21.57013707152257
C          -0.77465291764961  -30.01398173656105  -20.39670156286110
N          -0.41181540832240  -30.61841475642031  -19.48978152906226
C          -0.67402070642952  -30.00572412873928  -22.70932582188236
N          -0.23028537892238  -30.59424127537542  -23.58962573353557
C          -2.42885210137166  -27.55678144935235  -22.82847356572886
C          -3.33332620358916  -26.53244174702063  -22.46849073415562
C          -3.90295635216455  -25.72287433168866  -23.43677923435418
C          -3.56715140787444  -25.94087470878453  -24.76484327948820
C          -2.68660758911385  -26.95172954145175  -25.12086708460875
C          -2.10988184207963  -27.76924711306219  -24.16003283656380
C          -3.51449272074006  -26.56731368091895  -21.02368615379261
C          -4.57190750513888  -26.01742655564739  -20.34485037569110
C          -5.51842084765820  -25.15230098381497  -20.93171213061074
N          -6.30377015304818  -24.42098102391443  -21.33998702286235
C          -4.92743458447833  -26.32985112121934  -19.01563098639342
N          -5.30626461330039  -26.57855374953527  -17.96069439241595
H          -6.60955557998707   -2.69870598727354    8.83105407520366
H          -6.53064002042028   -0.57359004833120    7.60869739647211
H          -5.56291608899320   -0.44975227220579    5.35460589599101
H          -4.63408829356324   -2.45848434754630    4.27460134462700
H          -5.41002063311838   -7.88673439211753    7.40375889601171
H          -4.94941690502614  -11.13480588302178    3.86211501524462
H          -4.79880081572053  -10.07443222477195    6.22860779195090
H          -6.02358678729965   -7.47438489825835    0.88367075168297
H          -6.11533727976998   -8.54025990084567   -1.47505041106641
H          -5.78806626335362  -12.10084842499110   -4.92467941611727
H          -6.17171560061858  -10.09318846272055   -3.35324825438128
H          -4.43500397227297  -15.25694701960757   -2.99812816178027
H          -5.21979628909541  -14.24693600325640   -5.78608041287227
H          -3.19307139106726  -18.34190975154182   -2.92118496283092
H          -2.51492095095574  -19.58894122386878   -1.92533804392102
H          -4.76923216293409  -16.19977247213438   -7.65989257558986
H          -1.22081260011951  -24.23331952858962   -7.09324415280602
H          -1.79848395677663  -22.34852257369083   -5.40462568212199
H          -0.82532897919518  -25.54252944259482   -9.04053315095611
H          -0.80933293159848  -26.54566932563958  -11.42795041075169
H          -3.09067203059110  -24.30611110399920  -16.57083347032939
H          -3.06880139732067  -23.28625604442207  -14.19424973923618
H          -1.34853007143587  -27.82931463611992  -16.69101709930288
H          -2.72934450955547  -25.69104396251432  -18.39478972212310
H          -1.37956139117323  -28.37996110062863  -18.97084844631614
H          -4.58453661229655  -24.93048061923333  -23.17342168823029
H          -3.99844433504322  -25.31294183716466  -25.52943283961894
H          -2.44144284933432  -27.10549810350900  -26.16066136845813
H          -1.42507457709670  -28.54704335717947  -24.45500414727688
