106
 SCF done       -193.109137801009          0.000281567081
C          -0.29731326064189   -0.22542580596433   -5.78995420974936
C          -0.98248655444334   -0.22124236929873   -6.99712608923249
C          -2.09910914212273   -1.02031981931302   -7.18965969595255
C          -2.56960582298299   -1.84378258108511   -6.17639817103899
C          -1.89194666548091   -1.85772671118914   -4.97044299551919
C          -0.74890728322732   -1.05072208898879   -4.77371278573170
C          -0.23741360984637   -1.28204998150003   -3.42649836779046
C           0.79184547730807   -0.59439331791643   -2.83257838468971
C           1.50984031884076    0.44780691101581   -3.45392476880609
N           2.13769155374087    1.30308688281628   -3.89339978001009
C           1.25122540603384   -0.78368366658585   -1.51445953688745
N           1.67253550434515   -0.87191561141764   -0.44838717475791
C          -1.01981797616021   -2.36740923170637   -2.86157494818929
C          -2.15808624572252   -2.57665275185337   -3.73351038837983
C          -3.37501707381732   -3.09035853927731   -3.35473989981627
C          -3.68167773982043   -3.44895997910391   -2.02710569428780
N          -3.97670854439914   -3.69716861747957   -0.94470413353553
C          -4.48063494359852   -3.21313041396337   -4.21694941339816
N          -5.40840135761773   -3.35513637245374   -4.87874192005802
C          -0.66282835082180   -3.07837233914387   -1.73650978630174
C          -1.03120550557043   -4.38078585372761   -1.34828836689449
C          -0.80847304149426   -4.80270803063469   -0.04616362680331
C          -1.14544218614359   -6.04381993329222    0.45776362331627
C          -1.76067740130344   -7.07090838277887   -0.38453306034988
C          -2.00409328540923   -6.92013438134852   -1.70386179961576
S          -1.65696959959326   -5.48778896565310   -2.57736873480689
C          -2.00248547485675   -8.17015621902384    0.48347729170089
C          -1.57747824594748   -7.86409136409249    1.78171014243640
C          -1.78022436209440   -8.95358497397338    2.66151174637374
C          -2.34338196020239  -10.01539167432546    2.02988342439224
S          -2.65022517235243   -9.75107098233420    0.34636989571258
C          -1.03522249560720   -6.53225961303741    1.78832466594005
C          -0.48983620521706   -5.79799759180740    2.85664783399322
C          -0.54847527069709   -6.12480378518351    4.18021236360131
C           0.01483607802177   -5.34217042873334    5.20973147272416
N          -0.21301226750091   -5.63954829476550    6.54162810918117
C           0.42688773703334   -4.71819657623767    7.30899399144508
C           0.66759020256742   -4.31431658409987    8.61036812695233
C           1.49371579220536   -3.17571664211046    8.50990846086517
N           1.74341417092757   -2.90054388780640    7.18360805885607
C           1.10458289504374   -3.82041342390459    6.42875539138625
C           0.84151333710968   -4.20868179753040    5.12359971309392
C           2.03985852571178   -2.33960627750803    9.50377774186984
C           1.89023236335586   -2.47730949975627   10.85028443848834
C           2.46342147576787   -1.61608123958030   11.82176722970632
C           3.13415964274427   -0.43716643761238   11.54179859269468
C           3.74580078465521    0.37269597919693   12.48271922153412
C           3.76326083725988    0.02561572383483   13.90119205072382
C           3.13393275409363   -1.05335489376904   14.42106510277173
S           2.26160171389030   -2.18117172298440   13.47059203546492
C           4.55953948529653    1.02550873630054   14.52588019925702
C           5.03344010542360    1.93177191478706   13.57588315664019
C           5.80744829273750    2.95157016653439   14.17356039891290
C           5.90626957148914    2.78654123474434   15.51934097957183
S           5.06695991196090    1.40167959089188   16.12245459531500
C           4.52123281201085    1.55119984521091   12.27875740738205
C           4.72004515810408    2.15516483172174   11.03795153011225
C           5.67540829187624    3.11278778891476   10.75783168411023
C           5.86917001765988    3.80789646777865    9.56996287636800
C           5.29048619550247    3.69465340157813    8.30415290138035
C           5.18278237120984    4.82924864090616    7.40458798880385
C           5.67912523554226    6.09850191984298    7.58135656694567
C           6.40067919082205    6.58064298990722    8.69230528481399
N           6.97635670196070    7.08248939804551    9.55191461041465
C           5.53552472134278    7.14228116756011    6.64398926440518
N           5.46868759285903    8.04341134342887    5.93471730008177
C           4.37407210168940    4.40452350682489    6.26551555593826
C           4.03710876767540    3.04538669573832    6.43999504524901
C           3.25343560315789    2.38944743790584    5.50698554783154
C           2.80628412774313    3.09398671347982    4.39811700483622
C           3.14378122431591    4.42598469696614    4.22140941773578
C           3.92961066152364    5.09425790113381    5.15067280217765
C           4.68766701065366    2.56642925385544    7.65389178611948
C           4.86607030743654    1.22588937970036    7.95345380202505
C           4.16317346759699    0.18253461532276    7.34779862035187
N           3.56568988634529   -0.73081586403521    6.97503255578014
C           5.79792315470661    0.73807028795879    8.88677948259274
N           6.55779232489959    0.27539098694132    9.61408744430597
H           0.56908472005687    0.40205439924376   -5.66052738658086
H          -0.63570031941444    0.41447131023175   -7.79753379627934
H          -2.61142733612656   -1.00409874437673   -8.13955861237717
H          -3.43636078369767   -2.46459667146984   -6.33648838867555
H           0.05798005577611   -2.61230563721293   -1.07777440106579
H          -0.38477090290396   -4.06473059386215    0.62158630837055
H          -2.44465676765766   -7.69548793725498   -2.31046215403646
H          -1.51799346069036   -8.97546245675280    3.70304238555749
H          -2.60505117337699  -10.96570425858484    2.45262463596045
H          -0.00647816494999   -4.86840173263697    2.59350680937025
H          -1.08781771674285   -7.00914044361629    4.48717667091352
H          -0.79621374019899   -6.39165653794521    6.86543810635983
H           0.31295968576413   -4.75370497126781    9.52039815861874
H           2.35460285312279   -2.14745971425698    6.87829158333630
H           1.19844289433539   -3.75667808902137    4.22130054753158
H           2.64053152548064   -1.52868860982199    9.11705608817003
H           1.32341854812459   -3.31423305141802   11.23345574213194
H           3.19117826454158   -0.14420881674809   10.50445396104120
H           3.14707851947440   -1.28491794873033   15.47408545127525
H           6.26503434203205    3.77652389079733   13.65996902067678
H           6.43233735749484    3.40820200456245   16.21713495993387
H           4.04344503544793    1.85089915193860   10.25082591163396
H           6.33152653624098    3.39707576449892   11.56632652293834
H           6.53732922658349    4.65384817966354    9.67080148436604
H           2.98141646290079    1.35371431262727    5.62952277564228
H           2.19229370651904    2.59387640418344    3.66471911061237
H           2.79343917421718    4.95544296909790    3.34864302233005
H           4.18385763725061    6.12870693681716    4.99132268003135
