130
 SCF done       -211.859742829516          0.000709740086
C          -5.03657339306992    0.45128753201229    9.04455038988248
C          -3.74946690622883    0.82861227740244    9.39551504214390
C          -2.65957123315077    0.47545852438496    8.61149128378077
C          -2.82655620385290   -0.26048375660563    7.44862275452594
C          -4.10808325919535   -0.64349220259727    7.08701955739019
C          -5.21902218039355   -0.29164430135656    7.88807304732705
C          -6.42802171372678   -0.83270826457665    7.28382547052290
C          -7.71225393139312   -0.56998698707219    7.67195381167487
C          -8.05487114101952    0.27184589455558    8.75227063471965
N          -8.39980346192084    0.94466424210227    9.61545383064604
C          -8.87148798108492   -1.05270864389559    7.02689043854891
N          -9.85535322382365   -1.40069051424245    6.54840053395499
C          -5.99609211372476   -1.69295414168327    6.18129845282234
C          -4.58987858371711   -1.37781181594696    5.92893999676906
C          -3.93364651149504   -1.51318723939041    4.73744061797241
C          -4.54329950235814   -1.96259456210123    3.54715941748111
N          -4.99906433061078   -2.24061509095627    2.53151343104552
C          -2.59279906558781   -1.12617559278785    4.53184220765326
N          -1.50036680761915   -0.84642488691532    4.31936932038838
C          -6.75306930029860   -2.67203546011503    5.62346698425935
C          -6.31114905651953   -3.77022668435366    4.80271459330593
C          -7.17865326358916   -4.26241379320841    3.81478871161043
C          -6.76634811529872   -5.29631338112482    3.01296328387822
C          -5.51103012006955   -5.89869723236495    3.21191108678809
C          -4.67257622825182   -5.46011334640759    4.22816851920627
C          -5.07253644998514   -4.39545800304056    5.00716317309322
C          -5.34492594200034   -6.95142193415303    2.23329646334220
C          -6.49510044031070   -6.99374292750461    1.42664731837247
C          -7.49756104564517   -5.95439878124180    1.86826647627081
C          -8.80958417283380   -6.60743239713203    2.34461952457873
C          -8.59740654989271   -7.62090105717731    3.46288813590416
C          -7.80079944476429   -4.94790941042314    0.74224941002687
C          -6.54897421343107   -4.27636606281071    0.19156905981703
C          -6.59291390760000   -7.89369700621384    0.39197029640485
C          -5.53041110663314   -8.77021422573795    0.14982452084853
C          -4.40070194001921   -8.73779059772187    0.97320811682256
C          -4.29712953470768   -7.83337902167391    2.01110400779797
C          -5.55774760174790   -9.72161297646496   -0.95658588958497
N          -4.63522599872194  -10.71466294276876   -0.98280812064886
C          -4.75229987985442  -11.45453359291791   -2.02671274998442
C          -3.95736329912839  -12.12264243891992   -2.91997072962983
C          -6.38106904303657   -9.61864467686820   -2.05758614538781
S          -6.38684492230934  -11.14336344252783   -2.93678929021052
N          -5.65108164461758  -11.41108504687533   -4.39243915162926
C          -4.51202113718050  -12.07823876128752   -4.21883495241885
C          -3.90624792808711  -12.63455083983155   -5.40401317313754
C          -2.89212213654885  -13.51405604872329   -5.40282456288364
C          -2.25456688873701  -14.06951536669407   -6.57849019561208
C          -1.48376995877053  -15.23359716230434   -6.43832079001210
C          -0.86569342802413  -15.78302021805688   -7.53648534776667
C          -1.01941982613978  -15.18747099300481   -8.80150016907705
C          -1.76623627723673  -14.02693885409101   -8.95079355966902
C          -2.37290221031673  -13.47607970751896   -7.84139834850440
C          -0.32819192423233  -15.99327600747185   -9.78186977737104
C           0.23602478687377  -17.10199050394342   -9.12533047383989
C          -0.00779214786340  -17.02447675681205   -7.63397038737476
C           1.37868135711600  -16.83112396323608   -6.97220261914665
C           1.36869787642350  -16.48116364311215   -5.49077748072031
C          -0.72611440744003  -18.26877654380812   -7.09169309115144
C          -2.04265700837965  -18.53801276054203   -7.81171287352712
C           0.95799676621871  -18.03305246455397   -9.82588585183269
C           1.14331493691824  -17.86353242183964  -11.20808369627762
C           0.52793575960678  -16.78445650977005  -11.85831006483059
C          -0.19237271766859  -15.84249117970469  -11.15492552343413
C           1.92510051557636  -18.78242521337729  -11.99328101051026
C           3.00540806540656  -19.50490957988143  -11.59950505930025
C           3.53785049755339  -20.65889540405379  -12.32548165815197
C           3.36716351293967  -20.95054077915400  -13.64991366105503
C           2.67594407820838  -20.14047812708295  -14.57705209939685
N           2.14136812699682  -19.52696702699734  -15.38677882938451
C           3.91327274668091  -22.08681225275839  -14.28520652859529
N           4.32896123948159  -22.99078971683222  -14.85689051152935
C           4.30948912298672  -21.43464583130140  -11.36510280650749
C           4.41349173142451  -20.70115675559073  -10.16053520659015
C           5.09105513836712  -21.22497222991996   -9.07129199572772
C           5.66355458655959  -22.48194100920208   -9.19019044734890
C           5.56976130858651  -23.20008846125868  -10.37450279123000
C           4.89521447092562  -22.68680875022854  -11.47166911545033
C           3.75245279030299  -19.41924597013449  -10.34398352025139
C           3.98937977395661  -18.28611691187733   -9.61690714560990
C           4.73704521113515  -18.26168269132600   -8.42153941884413
N           5.30322862785157  -18.19068901239900   -7.42548407365422
C           3.57364755334283  -16.99291809920019  -10.00304464705484
N           3.33870523709187  -15.90866549946978  -10.29583425583794
H          -5.87015376418217    0.72972627560139    9.66808861692268
H          -3.59518853316699    1.40391521489001   10.29548792286513
H          -1.66691853816956    0.77600673544455    8.90984331230023
H          -1.97278248494238   -0.53508285112030    6.85041478782749
H          -7.81139721034520   -2.67666549198789    5.85034902624731
H          -8.13904917116157   -3.78947138629495    3.67287117427528
H          -3.72240303682545   -5.94030645059954    4.40659622055602
H          -4.43959770765273   -4.05939634571859    5.81673701472559
H          -9.28076846318883   -7.10270085947686    1.49326538308397
H          -9.48503574802027   -5.82214305389639    2.68962616285205
H          -7.94207004888045   -8.42489192864725    3.13490795863283
H          -9.54996491171907   -8.05307933596133    3.76027105737153
H          -8.14892771602308   -7.14682621636410    4.33328142669927
H          -8.48018120904685   -4.18628013924488    1.12984255411010
H          -8.31662300710389   -5.47595492930396   -0.06305355860616
H          -6.03594639538638   -3.71615409004048    0.96832183979280
H          -6.81946790685192   -3.58734978183915   -0.60497269001147
H          -5.86145614472151   -5.01594203065810   -0.21356320791877
H          -7.48003086440455   -7.92830823324227   -0.22111018741151
H          -3.60256581120237   -9.43350598167680    0.76722439514043
H          -3.41453373019158   -7.81177831719619    2.63241724172810
H          -2.97651945059805  -12.48960434885910   -2.69048538834549
H          -7.22564534805306   -8.96862908633103   -2.16377877893588
H          -4.36095542905936  -12.30490938528504   -6.32666718479904
H          -2.51073477452825  -13.87759892821244   -4.45695377505079
H          -1.41008905168344  -15.69885707891212   -5.46653245748480
H          -1.87249767490488  -13.56346544641006   -9.91985018528302
H          -2.94050763708076  -12.56482517939322   -7.94601865622001
H           1.90301374074409  -16.03996192092081   -7.51505913881722
H           1.94504472359331  -17.75565190155369   -7.11186326621156
H           0.91830691495413  -15.50641420480462   -5.32588616918223
H           2.39373642292585  -16.44570168064687   -5.12878727221815
H           0.83160206999218  -17.22607890099435   -4.90912746420616
H          -0.92340596017720  -18.13217015560478   -6.02783106836791
H          -0.06700653674893  -19.13304631905539   -7.20111898457835
H          -2.72095830145026  -17.69534375147837   -7.69741505731138
H          -2.52142142199114  -19.42343985284042   -7.39990087896947
H          -1.87541497648059  -18.69985387386507   -8.87455784246411
H           1.35832984218961  -18.90763289266027   -9.33261637481788
H           0.66347226366757  -16.67629415694497  -12.92418289790132
H          -0.63740668522844  -15.00208946237455  -11.66464897527665
H           1.56937086949190  -18.92963836138799  -13.00480346140583
H           5.16562295163960  -20.67834104835246   -8.14502931954434
H           6.18845208972948  -22.90639351166080   -8.34812663837041
H           6.02585170048518  -24.17568606121414  -10.44450654784019
H           4.82775900504972  -23.26023729519408  -12.38149879151444
