127
 SCF done       -216.947043317986          0.000462042883
C         -11.48912195764185  -11.75190380054254    5.71287946428533
C         -12.30284601119249  -12.64686937614572    5.03265175406291
C         -11.84267243824167  -13.32659170961558    3.91483465993931
C         -10.54986592577905  -13.13721772158323    3.44773562153543
C          -9.73105242471567  -12.24508232860390    4.11728811541285
C         -10.19968380195896  -11.54419875286928    5.25130526068684
C          -9.13937341286390  -10.66526760622449    5.73306424940048
C          -9.18974394754314   -9.90026712906353    6.87088462010160
C         -10.28857939839382   -9.86641375526789    7.75431824276783
N         -11.14324234274735   -9.78688606583898    8.51697022575413
C          -8.15574157322810   -9.07030963160533    7.34871346719184
N          -7.35875127002499   -8.37635420636630    7.80060281468810
C          -8.05554691550915  -10.74804624257783    4.76694924239521
C          -8.34467619898235  -11.86703997079217    3.89052783015849
C          -7.41245909802417  -12.61388978743608    3.21324195757890
C          -6.02447104448318  -12.39307735466719    3.31948815256749
N          -4.88819622517880  -12.26818415853312    3.43254695779318
C          -7.72560164614211  -13.74092256199162    2.42983171032925
N          -7.92658572396805  -14.65397758544459    1.76321856497184
C          -7.01313707269590   -9.85350961521781    4.69546961113917
C          -6.19787758068091   -9.50972187994958    3.59683956453112
C          -5.04370150114799   -8.77195562063422    3.79934645263159
C          -4.18316611932546   -8.34526255962305    2.80326275790812
C          -4.46034357294017   -8.60885553276685    1.38757378802313
C          -5.55399942779146   -9.26319025081429    0.94254641942779
S          -6.76625344122317   -9.90206877281949    1.96913897956548
C          -3.38161153819159   -8.01483040377036    0.68004401329436
C          -2.49470293004571   -7.40601761247887    1.57863547170758
C          -1.38868035120817   -6.83252997744451    0.90655703253919
C          -1.47244068026743   -7.00224129437768   -0.43731582163658
S          -2.88316177353916   -7.86677005109288   -0.95305846782850
C          -2.98568056690824   -7.59802385368699    2.91284220829727
C          -2.42893160222765   -7.14545897702086    4.13592081416349
C          -1.47990508343240   -6.18911665915925    4.26384067910144
C          -0.93392521661619   -5.71430547137392    5.50856040849687
C          -0.27456972153321   -4.47262061449639    5.52496748815966
C           0.21727843852885   -3.97729410859848    6.70573980912981
C           0.09542739720920   -4.71710720779044    7.89587380475239
C          -0.52778196727338   -5.95811166267210    7.88930922662725
C          -1.04058932052368   -6.44115234116790    6.70439449597309
C           0.68993825301278   -3.95950146097431    8.97303302540347
C           1.16936816255420   -2.74259296982849    8.45340076614044
C           0.91388866456242   -2.66204710313154    6.96594481978324
C           2.23042268024283   -2.55480660534068    6.17440608119071
C           3.18983810221388   -3.70256680762601    6.46542103625380
C           0.00195066459855   -1.47056485295648    6.61761010600772
C          -1.32303459337396   -1.49965648932073    7.37013450967464
C           1.76419493749500   -1.81590989795909    9.27149707189554
C           1.89915091136286   -2.09131806298599   10.64268825307327
C           1.43903306919723   -3.32067529106494   11.14135738834577
C           0.83157139082724   -4.24976910869416   10.32311563952518
C           2.48131143636913   -1.15965560043297   11.57497479816237
C           2.72841195414538    0.14666175031125   11.33865502404476
C           3.26518836431580    1.08138884173527   12.28064684004757
C           3.89285915393887    0.75563559164370   13.46244594664064
C           4.36785252910574    1.67836011823057   14.39005520246784
C           4.19233251358963    3.11536317659633   14.19291886462368
C           3.64240020385774    3.66921574801554   13.08730203490059
S           3.04350371372265    2.74594566467894   11.77806558737039
C           4.71038922527481    3.72684237811038   15.36731414938546
C           5.18163614971974    2.75508264289193   16.25098584349101
C           5.70410754389793    3.33743714272037   17.42723552382064
C           5.61299522360698    4.69375699591849   17.40308016744382
S           4.89714882544620    5.32598207401726   15.96381556379456
C           4.99408036932195    1.45510836715542   15.64514727089922
C           5.32810878932225    0.19103127590094   16.13996721150072
C           5.81454395998575   -0.09187382658609   17.39494658071042
C           6.19650794342348   -1.34540773384831   17.88178860198175
C           5.99043884003381   -2.61913933436743   17.37363721140666
C           6.85366773846232   -3.74541158999762   17.68328960741925
C           7.81094035264179   -3.83218933348094   18.66424054320898
C           8.14027771467195   -2.83614383165559   19.60580909410033
N           8.48303362122274   -2.09228902391619   20.41234937940627
C           8.60220304983742   -4.97555045297685   18.89812893136217
N           9.28202374488770   -5.86606899502032   19.15158609836151
C           6.53784927794142   -4.80232566498673   16.72667163191690
C           5.44513749407669   -4.38388428486546   15.93682500320308
C           4.95520863113569   -5.19129252506521   14.92492049001982
C           5.55973939252347   -6.42046958591686   14.70488984074844
C           6.62529853422888   -6.83827280931759   15.48671041040957
C           7.12454307196202   -6.03675928586363   16.50376293006178
C           5.00787743839976   -3.08068677738916   16.42001085437743
C           3.76352850893920   -2.53828288616737   16.18496712893814
C           2.86856036015248   -3.01215501398684   15.21475785370844
N           2.12110381224130   -3.29830148882462   14.38846836569336
C           3.22063740681850   -1.45530592637666   16.90222749816659
N           2.70582527208665   -0.60229716092213   17.47338427288823
H         -11.86600069554204  -11.23239137360561    6.57836892900821
H         -13.31100873449292  -12.81187996723881    5.38105963644618
H         -12.49708440029119  -14.01250440469572    3.39886116228114
H         -10.20222868909325  -13.66645285393972    2.57519134442649
H          -6.82818812790873   -9.25510841518349    5.57781860855041
H          -4.79898564877859   -8.54989870769352    4.82947326646690
H          -5.74913173719313   -9.43094648974608   -0.10501606188366
H          -0.56109543289903   -6.33573618814352    1.37812421723996
H          -0.77772491982183   -6.67122714228189   -1.18438210652936
H          -2.84929751090082   -7.58600645653304    5.02909142694653
H          -1.13358491204366   -5.67590075459304    3.37774903975270
H          -0.18381972551859   -3.90950853738081    4.60655696530035
H          -0.61411119351336   -6.53483754345199    8.79775177697492
H          -1.51607444957116   -7.40964521132172    6.69437318386226
H           2.71276736676406   -1.60728675787710    6.42398432115448
H           1.99676996741954   -2.53873219051860    5.10768877873008
H           3.45175202328051   -3.72594048926175    7.52093183652527
H           4.10294087984272   -3.58309151462152    5.88681268716036
H           2.73842302622252   -4.65696700060503    6.20346236506661
H          -0.19135507763261   -1.48057957795398    5.54276308185557
H           0.53160575408472   -0.54462870665719    6.85184818140225
H          -1.87804658630082   -2.40576820596465    7.13764780404184
H          -1.93116924620979   -0.64282283191712    7.08961227463002
H          -1.15643375345125   -1.46651092843588    8.44450264096330
H           2.13567944352745   -0.88790622948603    8.86401890905444
H           1.54892702768744   -3.52486114866075   12.19525822244437
H           0.47189008547943   -5.18369925904984   10.72746592183027
H           2.67046947634888   -1.56699451248921   12.55906876513654
H           2.45383450654676    0.57809876177580   10.38521504122639
H           4.01407445444737   -0.29759010756303   13.67094114913197
H           3.54137321494193    4.73517771926533   12.95925111900386
H           6.12866204981843    2.80782916504892   18.25940234506270
H           5.92838589198622    5.38304332816182   18.16174165699375
H           5.22421528051203   -0.62478092050825   15.43672784257327
H           5.98864148414962    0.73529614799657   18.06472271081573
H           6.82221654502918   -1.30178557328616   18.76381306275855
H           4.12959666028281   -4.87786344501365   14.30669853947516
H           5.19296933769575   -7.05697982404165   13.91393152301893
H           7.07871673503923   -7.80041512526215   15.30300564117364
H           7.95483021613175   -6.37964250233380   17.09818948837754
