127
 SCF done       -213.012753670798          0.000386242084
C          -9.86205851238602    2.64960100953943   -4.03603481851195
C         -11.20406136545732    2.90274042728791   -3.79695218037087
C         -11.95839990768516    2.06555211729639   -2.98612975136614
C         -11.39035861282971    0.95235589118281   -2.38614318124527
C         -10.05025866453907    0.68761147560979   -2.61849171519766
C          -9.28130381639645    1.53604441390324   -3.44845085235791
C          -7.92360976590152    1.01683350777926   -3.52701020432469
C          -6.84968218323352    1.64411616966348   -4.09381598541552
C          -6.91184462654290    2.91012454976211   -4.71578861081455
N          -6.89585495932560    3.93247096039811   -5.23654891525315
C          -5.52737667387975    1.14927386982352   -4.09465884764272
N          -4.42988706242027    0.81349777097816   -4.12054262854198
C          -7.93878708850733   -0.29281321509131   -2.87277208325919
C          -9.18923158714803   -0.37068131410082   -2.11732105682523
C          -9.40853962338207   -1.11963811918880   -0.99496786659151
C          -8.42985878698120   -1.92981108471772   -0.38122932234952
N          -7.65937597807605   -2.54470748544197    0.20609152454653
C         -10.61487407504879   -1.10169706551685   -0.26378754773737
N         -11.58113691975095   -1.13757468534465    0.35414092471887
C          -7.01290292967816   -1.26447241371279   -3.07341670987094
C          -7.12632198795127   -2.66970372432820   -2.77650510523064
C          -5.96475796527125   -3.38093109724689   -2.43747284256839
C          -6.05498488490229   -4.72034120725604   -2.15506254239546
C          -7.28882499882413   -5.38945562960068   -2.25259918653644
C          -8.43341729916803   -4.70526221540248   -2.63951837699751
C          -8.34607515814366   -3.35261057214870   -2.88983485361421
C          -7.08221501366770   -6.78302764321697   -1.92751064428858
C          -5.72300686436493   -6.97292888248870   -1.62705667440911
C          -4.96196326187414   -5.67442544696349   -1.73971001964352
C          -3.85235067415254   -5.76525436163341   -2.80475417477988
C          -4.37878013081116   -6.15679166927497   -4.18029413484155
C          -4.34494988281206   -5.26646530643341   -0.38785639737026
C          -5.37490676173801   -5.15842915123106    0.72965586585664
C          -5.23995428635854   -8.21370621633890   -1.29149928192636
C          -6.11795053984962   -9.30744113698569   -1.26138306966140
C          -7.47328854182569   -9.10238609058167   -1.55660397876386
C          -7.96237107898464   -7.85564755829975   -1.88508682063560
C          -5.64191585206668  -10.63802306270926   -0.95869255451396
S          -6.74310903729420  -11.98089177694798   -0.96208578666611
C          -5.47823195827748  -13.11137636783678   -0.59197531688885
C          -5.69192228054525  -14.55710338549703   -0.43829150073118
O          -4.78370349408861  -15.31442923645506   -0.22374837826972
O          -6.95625613373137  -14.99671446468144   -0.55239758803399
C          -4.27455656492064  -12.47345052524745   -0.46164960783635
C          -4.35989475573709  -11.08206930578386   -0.66566365064969
O          -3.31482618215674  -10.22567771555072   -0.50753487281773
C          -2.06508011016373  -10.56855850335677   -0.96128507781664
C          -0.99605121375597   -9.93401055696847   -0.32763503496770
C           0.27647664660800  -10.16594675759520   -0.79244537972808
C           0.49246243977741  -11.02896744944668   -1.87943031210593
C          -0.57388470070296  -11.65957519368774   -2.50099161630330
C          -1.85596333349894  -11.42360989153320   -2.03975492544578
C           1.90890920106346  -11.04464772720990   -2.17248855138198
C           2.56655051035782  -10.19649834539765   -1.26209899426481
C           1.58651547353238   -9.62855016794798   -0.26237032384570
C           1.61343029536703   -8.09335486883436   -0.22605801021421
C           1.26721380281721   -7.47230486286494   -1.57447705300296
C           1.78657397440439  -10.23972298764039    1.14609528481751
C           3.14010037889412   -9.98247685755990    1.79442104965174
C           3.91588784305052   -9.97277976409907   -1.37854343505588
C           4.63056805985905  -10.58444830261236   -2.42068122017798
C           3.97215002359148  -11.47168976818852   -3.28359233013981
C           2.61948085851712  -11.70690129776843   -3.16441687647903
C           6.04320085208734  -10.32593206300200   -2.53299106775264
C           6.79022884875907  -10.28085233622802   -3.66545595241949
C           8.24914290167297  -10.38967821570751   -3.70567519484347
C           9.12303957394059  -10.16038208248213   -2.67972254338125
C           8.76227444300436   -9.71545572805899   -1.38943980865426
N           8.54111721241260   -9.34460232506278   -0.32565867435480
C          10.52441375858325  -10.29040651976926   -2.79108915725142
N          11.66831137910627  -10.37825351148797   -2.81434313730048
C           8.59965326053014  -10.78136257490576   -5.06324691085146
C           7.43958415612222  -10.72962113416279   -5.87033691618188
C           7.49721048212569  -11.06929986858421   -7.21242390663844
C           8.71615953511272  -11.46103666421462   -7.74391529558373
C           9.85736824580609  -11.50734958535205   -6.95473418527857
C           9.81309632019415  -11.16877549351165   -5.61100664369743
C           6.33085737123757  -10.26356346202533   -5.05427704225279
C           5.18355770303090   -9.68282610255456   -5.51835876298474
C           4.82464018811728   -9.63429451687329   -6.88179671517830
N           4.47611177861897   -9.58470455672147   -7.97402020713210
C           4.26566262893682   -8.98086288038740   -4.70875290830852
N           3.52366418427404   -8.32958481915418   -4.12394646535501
H          -9.29311982305440    3.30705362465788   -4.67263328154874
H         -11.66791026539498    3.76397409144851   -4.25280904922524
H         -13.00275942472691    2.28122222041438   -2.82038641983099
H         -11.98712447390459    0.30490688716255   -1.76414306075238
H          -6.09134827970374   -0.98279270678323   -3.56633797796201
H          -5.02460917496709   -2.85437500844638   -2.36755549803043
H          -9.37621729883861   -5.22018251017507   -2.74579720171531
H          -9.22339734994978   -2.81426636807001   -3.22022045296893
H          -3.11521156583680   -6.50120123860703   -2.47722136594671
H          -3.35067875044991   -4.79807273637057   -2.87088760777902
H          -4.87339653653771   -7.12509032032357   -4.14287957897671
H          -3.55702802481146   -6.21812355583928   -4.88965538224702
H          -5.09285591027451   -5.42130363358963   -4.54433662469793
H          -3.84248608043841   -4.30524130401330   -0.51151160447806
H          -3.58879114571801   -6.00740070502974   -0.11877536121052
H          -6.11997168202001   -4.40152364613222    0.49985138461908
H          -4.88314228321254   -4.88191894846042    1.65921846197531
H          -5.88183293711558   -6.10937823224106    0.88006057015679
H          -4.19875636884402   -8.34790752623567   -1.05481489479835
H          -8.14801340532241   -9.94640248990289   -1.52723092101175
H          -9.01023042913447   -7.72266247688079   -2.10691043194985
H          -7.59113554882932  -14.28709337585638   -0.72047694654576
H          -3.36623395956313  -12.99324511652644   -0.21452679294662
H          -1.19762441395762   -9.27152507570605    0.49964222462568
H          -0.41672670366927  -12.31785548659280   -3.34131185061853
H          -2.69999444420545  -11.88886544042189   -2.52715554313314
H           2.60822851030224   -7.76163747797119    0.07226365358743
H           0.90385405710886   -7.74981952466293    0.53007940720060
H           1.97246641008398   -7.78864509423208   -2.33814954109461
H           1.30198939093021   -6.38773986708003   -1.50329354391795
H           0.26723771092359   -7.76397269978469   -1.88873383014414
H           1.63481309683804  -11.31971520705028    1.06816353786832
H           1.00020996317118   -9.84281798360708    1.79167155893613
H           3.93850803931818  -10.45819274422104    1.23181806218516
H           3.14137277474013  -10.40115579433230    2.79849246131310
H           3.34747215220594   -8.91900219210174    1.87389184232622
H           4.43363928081110   -9.28873187311013   -0.72406744207621
H           4.54234716191393  -11.99826080026305   -4.03618999373428
H           2.12236008802654  -12.38809806375506   -3.83822547470052
H           6.55815884575193  -10.20929066087851   -1.58819524794019
H           6.61568970610663  -11.04372272065671   -7.83247172966744
H           8.77576117334054  -11.73506250575798   -8.78604862544305
H          10.79551958976223  -11.81460336375071   -7.39082957155810
H          10.70776208378713  -11.21566563589688   -5.01219469083173
