112
 SCF done       -200.077191767916          0.000713083021
C          -0.37488971941533   -2.92600871976297   -0.28669748477083
C           0.74232611657050   -2.41262636236830    0.35614728196266
C           1.41037135928388   -3.14733932805759    1.32441983678804
C           0.97575618266826   -4.41579463553918    1.68215035503022
C          -0.14509361706376   -4.93264948618796    1.05383618776975
C          -0.82027706570244   -4.19111744316934    0.05998712308274
C          -1.94969984169030   -4.97682296683317   -0.42623415008517
C          -2.79778552185671   -4.60354887566585   -1.43852014082231
C          -2.67449070715858   -3.40631563179413   -2.17296503283670
N          -2.63284322969185   -2.45535170140022   -2.81539827727681
C          -3.88910672689664   -5.35496452559879   -1.91924779920974
N          -4.79330307567997   -5.90405802333225   -2.36749301121054
C          -2.01480113726974   -6.17650884674621    0.38865849677036
C          -0.80661486426056   -6.22042873868949    1.19651042197288
C          -0.23699944386146   -7.32274512211220    1.79272902540005
C          -0.72171783584894   -8.63856356302640    1.66254460402362
N          -1.03152360553086   -9.73860552016492    1.54572490660626
C           0.89940223281829   -7.27902491294611    2.61966668993692
N           1.77670805732971   -7.30224634825036    3.36224234075395
C          -3.09784406716882   -7.03590077696553    0.42231259594479
C          -3.45319048908414   -7.86552639714299    1.50276102268906
C          -3.01215545765579   -7.61138874513158    2.79169989199778
C          -3.18543912453205   -8.43806548345950    3.87801865547835
C          -3.89307993284968   -9.71724949217057    3.74339641903614
C          -4.53835274053234  -10.09885472176252    2.61580394895223
S          -4.53888909888738   -9.20495671999923    1.15458791221131
C          -3.70272905390636  -10.37997591797189    4.98408509207339
C          -2.90661824334766   -9.59018971912798    5.82652671594171
C          -2.63777601339318  -10.22823535694147    7.05923502031063
C          -3.22224446624720  -11.45136390578679    7.12236348131534
S          -4.11803061640681  -11.88239076459946    5.70004567837855
C          -2.60036815838501   -8.35571585489640    5.17129388062173
C          -1.72781584107338   -7.36972559102730    5.67984815640077
C          -1.57245219140022   -6.10149356847706    5.20622381472676
C          -0.50223823134080   -5.25493764576576    5.57070901169388
S           0.74119163357400   -5.86556191546171    6.62236170314382
C           1.68427435847773   -4.40962032023641    6.48399941585515
C           1.02554833560098   -3.48417257988346    5.68757169510440
C          -0.18668847574721   -3.96362384567872    5.15881681556171
C          -0.87144594630339   -3.00754234429391    4.23096163124127
S          -2.41200050701430   -3.54396157029479    3.40540406776836
C          -1.09305550381778   -1.66470967600221    4.93630283128083
C           0.16979679230096   -1.17786047303197    5.66932708534880
C           1.39611592220498   -2.06545221525442    5.41061979626525
C           2.94408014929184   -4.46095739633017    7.12867467335146
C           4.01337623627534   -3.63303443245219    7.02923014280866
C           5.26282976926359   -3.90724811090934    7.66664396243149
C           5.64315000098855   -5.15668672705940    8.10713287638699
C           6.83864161340051   -5.44967062151046    8.74798945152699
C           7.82253402702634   -4.41136127712344    9.04484128247306
C           7.68853312480705   -3.11952882536046    8.66439566118191
S           6.32352032949682   -2.51970444234455    7.81836216760043
C           8.85942505536367   -5.07210067532797    9.76009369015625
C           8.55589017925671   -6.42771827302524    9.91148262209683
C           9.56866208364175   -7.11065422561783   10.61988904526600
C          10.58226072319250   -6.27840006496612   10.97773273397431
S          10.35937483913387   -4.64007816110150   10.47498697496631
C           7.29364519722625   -6.69181725420757    9.26276924972632
C           6.57501259529595   -7.88544146850621    9.13655182426356
C           6.86403098768309   -9.10326136669810    9.70066885311086
C           6.11715415607351  -10.27610690256790    9.52402871383049
C           4.84402524828376  -10.45099527858490    9.01062780342088
C           4.38264734213497  -11.69774565171368    8.42060604039273
C           4.94089402665182  -12.94531825279420    8.54371082877871
C           6.08461993896307  -13.27590580250390    9.29854286116429
N           7.00304827709875  -13.63832322720575    9.88662013380312
C           4.40143051826815  -14.11008324211334    7.95974132013132
N           4.01626644399218  -15.10112157519171    7.52571188075812
C           3.18320035366000  -11.38658879368081    7.64819016226903
C           2.83356532318485  -10.03941322407597    7.88344777807800
C           1.75992008569880   -9.46138646376285    7.22859018798531
C           1.03097863604917  -10.23667018303170    6.33838604021590
C           1.35807142232968  -11.56649403093053    6.12285251685786
C           2.43412055830108  -12.15522380917804    6.77269714167816
C           3.76990568023855   -9.49045913917575    8.85556850452161
C           3.51471121602989   -8.39949714279827    9.65382678075914
C           2.40340025592195   -7.55399196018727    9.49892399293618
N           1.54037821559973   -6.79935123216709    9.40737191108886
C           4.29865153168945   -8.02322051089311   10.76173009216491
N           4.87727327961948   -7.68062268834948   11.69253426257157
H          -0.87706174733545   -2.34030492675701   -1.03821085791304
H           1.09561210085800   -1.42657549341052    0.09498961475598
H           2.28258714220145   -2.73078878406644    1.80717822492961
H           1.49619736544244   -4.97099305086435    2.44584749354001
H          -3.76742594825688   -7.04224439242984   -0.42636016195131
H          -2.45491704801141   -6.69738085773890    2.91607208509788
H          -5.08750610614591  -11.02516940812847    2.55226162675142
H          -2.04559111150086   -9.80916524770661    7.85236377427167
H          -3.18892337497594  -12.15358727698406    7.93226692617980
H          -1.10249417064491   -7.67833059772470    6.51027224668186
H          -2.28370281493987   -5.69671710573976    4.50643018850601
H          -0.20600595028142   -2.84825316839083    3.37377105197495
H          -3.21359367844429   -3.41846350271492    4.46280623302065
H          -1.91017665152709   -1.77982192278240    5.65275212264367
H          -1.41120174301855   -0.93538858132768    4.18954332567015
H           0.40275240907455   -0.15546375642056    5.37126524518079
H          -0.01650435432218   -1.17296675621359    6.74446187976026
H           2.21050088041937   -1.73614287291605    6.05215188048459
H           1.71460167131788   -1.96198618899285    4.36887125458393
H           3.04241753220172   -5.33313664207922    7.76180951065606
H           3.96264101849553   -2.71561069992787    6.46295054489366
H           4.95413799816029   -5.96625931224774    7.91834254725100
H           8.43523415506293   -2.36980868402664    8.87217603112363
H           9.56742292309778   -8.15657853598048   10.86345196297918
H          11.47243773049065   -6.52787369374682   11.52134231170593
H           5.71081282351200   -7.83268138113440    8.48742622160464
H           7.77335079512351   -9.20467992209451   10.27229074187006
H           6.65380604506736  -11.18648457091854    9.75721771561292
H           1.50377037361849   -8.42566277417495    7.38143244977769
H           0.20643100259392   -9.79636430507890    5.79850816191669
H           0.77514286604701  -12.15229860828371    5.42856878603714
H           2.67889800648125  -13.18677819282427    6.58085698199527
