100
 SCF done       -183.885886668304          0.000983711657
C           1.61283986848924  -14.97590322291184    1.20793526931524
C           1.30947075167112  -16.04444575360312    0.37575325846313
C           0.27455617698829  -15.96546357888242   -0.54411842688928
C          -0.48551730274176  -14.81062510742283   -0.66527251875301
C          -0.19471251093325  -13.74155186638775    0.16305571835245
C           0.85418430482520  -13.82155608070156    1.10735510372347
C           0.92126194496399  -12.56306963725490    1.84236191224024
C           1.90324954960828  -12.19746259350130    2.72798382067032
C           2.99077077664340  -13.02040327194627    3.08651161870806
N           3.89572349652791  -13.63860828355573    3.42829158501187
C           1.99923616481464  -10.93980047421616    3.35641032779230
N           2.14290634343946   -9.92920970415424    3.88503733518115
C          -0.23860407506573  -11.78363042290590    1.43858254799148
C          -0.78154115396354  -12.41297808652086    0.24928843030353
C          -1.46072383973497  -11.76529464129604   -0.75213852219720
C          -1.67334558171538  -10.37153673409656   -0.74354796675089
N          -1.80005841162712   -9.23045191610453   -0.77465618281305
C          -1.90920543043306  -12.39257444722069   -1.92982583455660
N          -2.31041742736214  -12.86519462707576   -2.89614633802536
C          -0.73920867371842  -10.72637234478867    2.15859866868014
C          -2.03493100128849  -10.16835660661737    2.17495645237437
C          -2.23644433110057   -8.95453269590457    2.81343360887782
C          -3.44783538626956   -8.29737766252530    2.92912801920715
C          -4.69514633794796   -8.93573991046269    2.48776999529789
C          -4.75292511870097  -10.13712989376454    1.87388628070707
S          -3.38131942730976  -11.09434978433323    1.50752399441851
C          -5.73544993329843   -8.05046395732034    2.88055812817190
C          -5.18658825760356   -6.93774393258420    3.52522199257410
C          -6.17827991836832   -6.01932862156936    3.93873689069976
C          -7.42271936329448   -6.45029739924876    3.60959058736316
S          -7.44627822669126   -7.97654559979240    2.78585561637136
C          -3.75691925167100   -7.05524718637285    3.54013326932946
C          -2.90065402873262   -6.07193417076619    4.08268330381829
C          -1.57525213744885   -5.90966065303010    3.81334495366511
C          -0.76325598347776   -4.93630956668513    4.43486515225639
O          -1.25636424025525   -4.13384222759550    5.41162414687878
C          -0.25008867878962   -3.33069197548291    5.83023284257307
C           0.90355811532308   -3.61289492140630    5.11239706534587
C           0.58648656374880   -4.63729299791588    4.21787212028882
C           1.50310399295763   -5.27888986139322    3.24240734557565
C          -0.52810927989529   -2.38823902233791    6.85810872339336
C           0.43772244147852   -1.58946070016227    7.43302206412637
C           0.18483744691630   -0.65018756851378    8.42527537204355
C          -1.17263751860259   -0.41052656344582    8.91438607258392
C          -2.26355973751033   -1.09526271956361    8.50041320924839
S          -2.21598554472312   -2.33826441960122    7.32279536334573
C          -1.05458366074962    0.65295172546309    9.85098639910677
C           0.27437077699349    1.07161145173043    9.94275666103344
C           0.42453997528219    2.11479981963993   10.88384308435562
C          -0.76164309016028    2.45384589178683   11.45467352966344
S          -2.10628663872980    1.52868843329570   10.88723134049298
C           1.07474456517637    0.25532773579049    9.06006309537100
C           2.45240882908274    0.30247844183591    8.81311572401670
C           3.31343274441428    1.29416635149310    9.21453142710682
C           4.69904717974488    1.34488696718130    9.01501618389382
C           5.53878993874033    0.58024418841553    8.22367267528684
C           6.95868799868790    0.42557587810107    8.49929941980387
C           7.74768367989159    1.19075567138094    9.32091574013523
C           7.34091811397081    2.32558351979480   10.05246697877440
N           7.10689619386594    3.26042921839551   10.67904410301183
C           9.12660912577612    0.97187222865169    9.52057243838772
N          10.24975024783919    0.85941094918344    9.73268875033977
C           7.41948174041445   -0.72559406579415    7.72926534976723
C           6.36123508558892   -1.17211551052985    6.90812141532685
C           6.52395130878512   -2.27053067800505    6.08150125534629
C           7.74688461479109   -2.92520846812434    6.08102926002965
C           8.78913325493726   -2.48499043643227    6.88219845986549
C           8.63863434292230   -1.38237453348024    7.71127058203218
C           5.22733882284918   -0.27883958548447    7.10207566460159
C           4.18234181657544   -0.13726790000562    6.21690047008192
C           3.89395806227692   -1.04848544014851    5.18896547265373
N           3.55146732461972   -1.80314620836021    4.39101489030859
C           3.27849570272202    0.94229326863179    6.23028874751617
N           2.53425508336417    1.81483109230644    6.17419984204735
H           2.41996936262224  -15.05659981873132    1.91743179668172
H           1.88958921227946  -16.95154047501208    0.45033141381138
H           0.05476381625703  -16.81270950688229   -1.17555798582925
H          -1.29050478407219  -14.75849284769425   -1.38063975257682
H          -0.07351425845956  -10.28777416829108    2.89032779286859
H          -1.35640394807063   -8.50153812706749    3.24620487538549
H          -5.68192961124010  -10.58590899326792    1.55903046465312
H          -5.98570284989341   -5.09379732898463    4.44985895072137
H          -8.35869068613691   -5.96163263805436    3.79757127080582
H          -3.36598314889352   -5.35743473529772    4.75029374819380
H          -1.08003753891758   -6.50683468151695    3.06482929787813
H           1.85184159762827   -3.12136974739445    5.19220331978805
H           2.42942695564109   -4.71485166220799    3.18527731545757
H           1.04993772179289   -5.31742929808644    2.25370847582899
H           1.73353500054330   -6.29941825612830    3.54857700764314
H           1.44547032428981   -1.71493955300238    7.06533068761533
H          -3.25065649018137   -0.89714335998798    8.88687434271796
H           1.34702356604265    2.59799019892185   11.14656933712754
H          -0.93797729576520    3.20958569156478   12.19487128712752
H           2.85445903641789   -0.54637449714766    8.27694694003928
H           2.90434074383030    2.10716862957904    9.79419490650763
H           5.20357979000811    2.05842380484050    9.65374349751743
H           5.72111928540156   -2.62605359613734    5.45623915821420
H           7.88472546580616   -3.78894373610519    5.44856020084235
H           9.73357363760470   -3.00711035813229    6.86535247327972
H           9.46068212838179   -1.05752753025889    8.32700784096360
