98
 SCF done       -183.316458390021          0.000750994318
C         -11.92558664450386    5.40812671069758    8.07937904419985
C         -13.23904992050703    5.80394658371990    7.88000626273271
C         -13.85033882334664    5.65974635214805    6.64122216633812
C         -13.16414781064606    5.12326062242520    5.56162520700060
C         -11.84998648465241    4.72629580881450    5.74554343441069
C         -11.22945555334102    4.86210168792040    7.01110909092820
C          -9.87434644645226    4.34614831066847    6.92661720971176
C          -8.88332331245507    4.46181110435156    7.86121112267792
C          -9.05099919076038    5.10195567289267    9.10982068533829
N          -9.12844931729923    5.60878500452746   10.13554536916321
C          -7.55661487635926    4.00909672325173    7.68663072414978
N          -6.46339586438543    3.66849593897112    7.59700490155470
C          -9.75804670945142    3.70136200415586    5.61542465961453
C         -10.88374356341051    4.17159260045092    4.80818227826797
C         -10.92146654354117    4.27125446217613    3.45008534026565
C          -9.81373180835323    4.00978102530479    2.61064304187279
N          -8.91653390500460    3.94313951356568    1.89857808390180
C         -12.02442876103620    4.79182468851845    2.73724934030271
N         -12.89703456580712    5.21150769330919    2.12307038023586
C          -8.85883415651236    2.71848073582491    5.35500911078151
C          -8.80660342576871    1.82623880134046    4.24963839829015
N          -9.80621417704087    1.63895914875143    3.40585378277061
C          -9.39347320151915    0.67257317164350    2.55546454892882
C          -8.04296920926707    0.21046488984315    2.88537538339203
C          -7.60917726823743   -0.82723415954998    1.93606585978427
O          -6.56986633013381   -1.44812280800835    1.91743666558348
C          -8.76429953108205   -0.92930460909847    1.01905112519824
C          -9.83782807206315   -0.00329587084078    1.44620807748740
N         -10.90433011186380   -0.08799442075025    0.61369125552658
C         -10.56437722585582   -0.97410672575165   -0.28753765201248
C          -9.23598128174651   -1.53750314344184   -0.09587233856840
C          -7.64242576158834    0.94730917151686    3.97657945014032
C          -6.43424181745336    0.96356833852722    4.71595917279265
C          -5.40915928069290    0.08941263276159    4.51827116787553
C          -4.21218995354928    0.07425895848176    5.27924728827326
C          -3.80600325323458    1.03789641917252    6.15805528847159
C          -2.63277258134805    0.92535484871446    6.93138526803820
C          -2.18661443639200    1.92001675087658    7.75669494008630
C          -1.05321811843955    1.84728275901561    8.59682829516887
C          -0.38740821152678    0.70361068857102    8.94121626905758
C           0.71629380916316    0.71727294417349    9.81804565626792
N           1.26952989208090    1.84964405133996   10.25497427524387
C           2.26639761177999    1.48631721491690   11.06934182959864
C           2.37875695754589    0.02048408829011   11.17094334874242
C           3.45565527642119   -0.35027160211544   12.10651982345957
O           3.82385758932826   -1.46361932406094   12.42803148475249
C           3.96430396003744    0.95189071222554   12.54841015444410
C           3.22293738755313    2.04769646160354   11.88965980459047
N           3.68104817721552    3.24872695200147   12.30201379568074
C           4.63630184689571    2.97602122170535   13.16440454994145
C           4.86039238920006    1.56426305582713   13.36935217947686
C           1.38157637025709   -0.48820431659289   10.37533308088457
C           0.97777131597520   -1.83430575595370   10.16784653131283
C           1.59112478452651   -2.87674425852933   10.78255298567961
C           1.14723304305749   -4.21506333059473   10.66172633818681
C           1.53099181370984   -5.23516027687087   11.48259822647574
C           1.37824702284796   -6.65707843277122   11.19596012838897
C           0.51057837689461   -7.22688180936247   10.30394863951034
C          -0.43548334356696   -6.51780886018772    9.53372382418096
N          -1.23210490715985   -6.00234159962237    8.88690458185305
C           0.41589538169386   -8.61479791578853   10.06628930373753
N           0.28853187390433   -9.72932156792891    9.82398516792849
C           2.32864913708369   -7.35720267199425   12.04804753667938
C           2.92725642033313   -6.42758777165995   12.93040138515435
C           3.89133631395695   -6.83630110766893   13.83678649136621
C           4.25086208592892   -8.17548005773181   13.86185735482184
C           3.65595215291917   -9.09148531963441   13.00525739759924
C           2.69155425366560   -8.69465234386305   12.09155950765929
C           2.32248101995617   -5.12328690304913   12.70534218243833
C           2.30571481708596   -4.08179311447163   13.59033179896998
C           3.06884859968211   -4.04997182963178   14.77785501692546
N           3.66669253307869   -3.97677736983733   15.75409187961101
C           1.42191579363449   -2.98149015292436   13.51244820159100
N           0.66901184035694   -2.11650912250956   13.55348729392654
H         -11.46656814413907    5.51725170676517    9.04857899844404
H         -13.79443073965758    6.22545227130789    8.70358500919499
H         -14.87665040217250    5.96815929600784    6.51448664737597
H         -13.65224129198307    5.00885861696280    4.60752530509565
H          -8.12157143617817    2.51916867175135    6.11936031303095
H         -11.24498748638448   -1.23288759723729   -1.07992231816004
H          -8.77574188736264   -2.27299943748719   -0.72537754111726
H          -6.34684095904876    1.70945346401756    5.49335019743540
H          -5.51737003146516   -0.67149744229586    3.75637320278622
H          -3.56745475483262   -0.78351627365317    5.13347007032909
H          -4.38930049373900    1.93877293208064    6.28980985431047
H          -2.06952995951848    0.00599271878551    6.84236515185192
H          -2.73440578418409    2.85371016818088    7.76250826118736
H          -0.69988562796308    2.76423846358737    9.04915660316972
H          -0.72490044912627   -0.25617324388858    8.57909158605776
H           5.17416358367290    3.77404173092572   13.64604595621174
H           5.58504863912688    1.13473482010574   14.03231067038987
H           0.10171514175334   -2.01655990533540    9.55963187364266
H           2.46442276057608   -2.67928727315801   11.38896972565507
H           0.50086388029675   -4.44111031685807    9.82419928218623
H           4.36438573879354   -6.13222852257276   14.50179965606343
H           5.00506790784563   -8.50787413950718   14.55861719515961
H           3.94946175892256  -10.12928461548961   13.04568240577520
H           2.24374594565335   -9.41767406275986   11.42957043817574
