116
 SCF done       -210.212208773889          0.000598860000
C         -11.15722482866384    0.74678036140509    5.19680169213594
C         -12.31053628911537    1.41885548687937    4.81915907237174
C         -12.75190047298422    1.40070231485615    3.50438294895343
C         -12.04672715750750    0.71573969384857    2.52584496006543
C         -10.89417779162217    0.04131322344002    2.89160592483914
C         -10.44777916022007    0.04992874162782    4.23188772921327
C          -9.23679709371096   -0.75687837646408    4.32997935684506
C          -8.46432876031778   -0.89966307315708    5.45383844376542
C          -8.73306400912606   -0.26443190439520    6.68437381680193
N          -8.88661309408801    0.21661427171808    7.71559947722770
C          -7.27974773607314   -1.65822764034706    5.55488012531010
N          -6.30904448403837   -2.24908612816102    5.72383380044352
C          -9.03664047099018   -1.37583796059037    3.02772535923596
C          -9.94503374824089   -0.72631536220468    2.09865954421307
C          -9.78079758832374   -0.61969101808752    0.74086337905644
C          -8.66809068442950   -1.12512633194713    0.03930468160023
N          -7.76173307355608   -1.47269329427484   -0.57365063981496
C         -10.65623429693463    0.08960313846055   -0.10507620000168
N         -11.34697124526421    0.63005185505007   -0.84616107079052
C          -8.19424419420949   -2.43918811082393    2.80805503035785
C          -8.22326582076969   -3.39209732584138    1.77653517647077
S          -6.84106710245485   -4.44503351866575    1.58222380562228
C          -7.62624376485588   -5.32938384702464    0.31874893298561
C          -8.90630689081320   -4.83828077034079    0.09161401177496
C          -9.23413876263368   -3.76153428213067    0.89361852284502
C          -6.98248576463017   -6.40345184974866   -0.33455416234167
C          -5.72177080449865   -6.91510339978064   -0.08738535083281
C          -5.39183074701173   -7.99223983540874   -0.89960070412186
C          -6.39009286957470   -8.33430662977780   -1.79434453249209
S          -7.76798057913388   -7.28656072942713   -1.61823334358507
C          -6.37944188164690   -9.38323697925332   -2.74402680985014
S          -5.02430795098540  -10.47006300808480   -2.86117363164971
C          -5.79029213282934  -11.37206597463948   -4.14070428616221
C          -7.02702672492197  -10.82714643289950   -4.44115081472455
C          -7.35464560442883   -9.72256688231734   -3.66283509697938
C          -5.12216990902255  -12.50099636479225   -4.67753161870102
C          -5.59148847845796  -13.29610085933989   -5.67182517802840
C          -4.92576092261669  -14.45189772311164   -6.15156996709353
N          -5.46844237171390  -15.21992741941997   -7.16469914777719
C          -4.65196090129236  -16.28229962999778   -7.39181055154878
C          -4.49146411592262  -17.43998276389475   -8.14693081363346
C          -3.30355060351300  -18.03267010506151   -7.70079843852077
N          -2.75073991336632  -17.24923370797438   -6.70540630463825
C          -3.55657908812112  -16.17732574912806   -6.49674152084945
C          -3.72525721011906  -15.03373938641666   -5.72526778331771
C          -2.67808363335643  -19.24752247174176   -8.07561288225874
C          -3.11270886855953  -20.10245723042366   -9.03488807994822
C          -2.49310359277057  -21.34335888851598   -9.33398727764614
S          -3.11598019747380  -22.33915744720674  -10.62286451797233
C          -1.93129733368963  -23.57616499486732  -10.30993044705538
C          -1.10949353891455  -23.20775341318517   -9.26215605086826
C          -1.41898447312383  -21.96572334442368   -8.72167057530650
C          -1.88390404757210  -24.77617571734878  -11.05944646608230
C          -2.64353107422581  -25.14494919917226  -12.15366308166659
C          -2.33253562287453  -26.40882358397668  -12.64468474241115
C          -1.33037374758800  -27.04510348835733  -11.93440162480862
S          -0.76200941864028  -26.03525446990464  -10.63312486974567
C          -0.78069635143044  -28.33303146264497  -12.14387929652627
S           0.40613907331875  -28.98880168168830  -11.06458702342433
C           0.50371251258163  -30.46982671215688  -11.98386163085899
C          -0.35817705670907  -30.41840054236262  -13.07163694444739
C          -1.07201203588849  -29.23450201303282  -13.15994557496633
C           1.39760113894848  -31.47467445254181  -11.57057296697164
C           1.54851072968242  -32.69521439528585  -12.16369268513946
C           2.41692370827272  -33.71376140993089  -11.72236759661615
C           3.53457260270089  -33.62096372755931  -10.92675120063441
C           4.07325787879311  -34.73331445757819  -10.15584608578548
C           3.79318496135050  -36.06789077729349  -10.29972985495794
C           2.94305216459725  -36.63893907207535  -11.26924963631034
N           2.27412998816002  -37.18938656174558  -12.02387060226583
C           4.36431167890672  -37.08478241703533   -9.50604477155333
N           4.78739968565016  -37.96512254402882   -8.90205544732431
C           4.98199350675612  -34.16353926214055   -9.16775609874793
C           5.12153872308197  -32.78158422048175   -9.42322515778021
C           5.91163049865279  -31.98833032684247   -8.60844932677623
C           6.56587255268078  -32.58225574493918   -7.53941076513157
C           6.43904751378066  -33.94131752363708   -7.29278056310000
C           5.64825920121138  -34.74496509989513   -8.10087455838454
C           4.34194364486977  -32.45276460348867  -10.60838536337005
C           4.55324967267417  -31.35543076622070  -11.40356851567032
C           5.43553377331898  -30.30579271010678  -11.07828687123202
N           6.12422538612269  -29.41262184620887  -10.86280518658030
C           3.97885754926084  -31.16696440514786  -12.67644391657674
N           3.57720732679574  -30.96771469840381  -13.73327775697847
H         -10.83292692669309    0.76994757736915    6.22390853817054
H         -12.87270773929468    1.96087772822095    5.56422541339548
H         -13.65634727841191    1.92497240574611    3.23604245214404
H         -12.40225506462560    0.70398381179728    1.50824975909810
H          -7.44505521917571   -2.63067599925837    3.56502676050098
H          -9.56273061961758   -5.26853978567404   -0.64396623987182
H         -10.19888847839954   -3.28589945659590    0.87707948548551
H          -5.07545725037440   -6.50493470432117    0.66828891948411
H          -4.45753110119824   -8.52292945619495   -0.85326010336555
H          -7.67366878821840  -11.22623867095426   -5.20113602111740
H          -8.27451451555630   -9.17103484007462   -3.74997044570909
H          -4.16619352059268  -12.73266826551840   -4.23088244939432
H          -6.54103680961478  -13.06346988285616   -6.13534421776405
H          -6.33143703245640  -15.01235518396156   -7.63674417427446
H          -5.13503902778889  -17.82514985057206   -8.91122510823199
H          -1.89406144611220  -17.46096274016216   -6.22387755868175
H          -3.08462286114299  -14.66077327103403   -4.95281052904862
H          -1.78388082202922  -19.49851124480600   -7.52013902199400
H          -3.98953973460355  -19.85235419891922   -9.61385849324166
H          -0.31064120446429  -23.83828943783066   -8.91276737659861
H          -0.88059805982989  -21.53337380727613   -7.89844424272316
H          -3.39688378794357  -24.50154823726549  -12.57254447934142
H          -2.82346977567443  -26.85623606085437  -13.48949300870783
H          -0.45048071968324  -31.22180334573320  -13.77909600463633
H          -1.77977428494101  -29.01984861495222  -13.93968403811547
H           1.97235921312740  -31.24812729746340  -10.68108372444555
H           0.88972348924167  -32.95761103982262  -12.97890645364417
H           2.11019250818604  -34.71353003821817  -12.00087551044132
H           6.01103207466756  -30.92963825761721   -8.78504111098910
H           7.17964560917999  -31.97556048332794   -6.89120869017203
H           6.95888817244350  -34.38353177581675   -6.45658545783476
H           5.55731361692216  -35.79726260470430   -7.88863867859349
