132
 SCF done       -211.874330896648          0.000561349584
C          -1.53572819597482    2.46234992429607   -0.82424326672976
C          -0.59228422273216    2.34745418062648   -1.83413839258628
C          -0.61130930721684    1.27511642227747   -2.71506062827874
C          -1.58102897829252    0.28918224243977   -2.61590309315955
C          -2.52831320309216    0.39272425607150   -1.61047648255247
C          -2.50616852374998    1.47937868444396   -0.70606109131190
C          -3.59746237850201    1.32490199153759    0.24700881242485
C          -3.98243595937193    2.24188908394813    1.18664600868859
C          -3.35767838220460    3.49340882711184    1.37296141534028
N          -2.89528946667745    4.52378795170661    1.57762997332371
C          -5.07650314476198    2.09491968053717    2.06578856668939
N          -5.95319828215494    2.04875722454100    2.80591371673541
C          -4.18824474918126    0.01206124978323   -0.00150577111198
C          -3.66944685996321   -0.44755858077892   -1.28814659632607
C          -4.29307906390192   -1.31313580645597   -2.14506186632817
C          -5.57945283794051   -1.84777600690514   -1.92173476688247
N          -6.65234366649676   -2.24678704150833   -1.83831705066717
C          -3.76357802693339   -1.71043259380408   -3.38914377069108
N          -3.35883341807069   -2.09646501571291   -4.39161644713239
C          -4.96519406942445   -0.67723312145744    0.87796693098051
C          -5.25508828318473   -2.08517061974325    0.85345601558344
C          -4.31522636113802   -3.02120534529913    0.38590229675261
C          -4.64277813711421   -4.35046409240739    0.36543194256259
C          -5.91326191835123   -4.78316425480172    0.79323074848189
C          -6.83103871893671   -3.87177025176185    1.29885149602903
C          -6.48685850635201   -2.53779349842403    1.34830620069241
C          -5.99210312937608   -6.21325059856271    0.61214115552459
C          -4.76540862408869   -6.67103819920594    0.09742956004914
C          -3.80425190970681   -5.52108650311152   -0.08996747565944
C          -3.38781359950755   -5.36741469064841   -1.56544406752024
C          -4.57661030095505   -5.32616307992176   -2.51828695660178
C          -2.54978530601181   -5.68558983565314    0.78841391998439
C          -2.87894484041944   -5.83737367587803    2.26863959877504
C          -4.57616024638334   -7.99968149652927   -0.18754203766167
C          -5.62656590016417   -8.90733840983327    0.01671155485992
C          -6.84304666938152   -8.43795253328918    0.53237237571421
C          -7.03085105317359   -7.10591408865976    0.83773477828034
C          -5.45074825060200  -10.29871532202956   -0.32411000161228
N          -6.51821281150607  -11.10906905028527   -0.64830021388351
C          -6.04351006051756  -12.34447489367365   -0.96071147178273
C          -6.41389107307271  -13.61698791407578   -1.39242294740453
C          -5.23322997574957  -14.35872747076177   -1.46416062139107
N          -4.17112135163734  -13.56330425284854   -1.07958729502543
C          -4.64170731939059  -12.32311687189293   -0.78538945321958
C          -4.27074015854734  -11.03386739710176   -0.39674392233865
C          -5.02351560335775  -15.70950819460423   -1.86355328592262
C          -5.95662706206916  -16.48955170848303   -2.44713457734706
C          -5.77164600792659  -17.84772020077795   -2.89433308190462
C          -6.67061738086077  -18.36819448708911   -3.83999075984017
C          -6.49940649763961  -19.64281455306889   -4.31634867162834
C          -5.45051651396326  -20.45042022477987   -3.83968011775366
C          -4.56834507072201  -19.95678975368127   -2.88659954085541
C          -4.73071433070225  -18.66577979724671   -2.43057561839609
C          -5.51450367140309  -21.72960003230028   -4.50471859273196
C          -6.59671156327432  -21.70889208245431   -5.40698909265378
C          -7.30983163851977  -20.37908909869723   -5.35641939326012
C          -8.77667343832827  -20.55103263130635   -4.91768347923901
C          -8.91435248146301  -21.16602650108393   -3.53018494213985
C          -7.25663348584031  -19.66095112741968   -6.71803492556467
C          -5.83399662253196  -19.46153945477180   -7.22710191890263
C          -6.88003829074419  -22.79842671505364   -6.18530857542410
C          -6.08630921031432  -23.95491278724485   -6.07357370805617
C          -4.98809363698268  -23.94769895848021   -5.19933990907124
C          -4.70759692740793  -22.85621251754053   -4.40617085569269
C          -6.32202221817396  -25.11891852108304   -6.88025074007108
C          -7.50335125054627  -25.54598637522748   -7.40669826047514
C          -7.62638191072850  -26.46651964736293   -8.53441992491497
C          -6.68305775440548  -27.34421183568712   -8.99482680725884
C          -5.41837290978149  -27.56081277262910   -8.40736619007024
N          -4.37971304860454  -27.79857865131878   -7.97937583313211
C          -6.87134234164945  -28.19718804411485  -10.10302909794680
N          -6.95863846122893  -28.91370819765983  -10.99545862412036
C          -8.96277067450714  -26.27702858214851   -9.08344145807930
C          -9.69353716469032  -25.42175120103613   -8.22693980186441
C         -10.99865552735199  -25.06713502920072   -8.52625081458906
C         -11.57010138818075  -25.56706858451387   -9.68647045334736
C         -10.85697543604067  -26.41117802158047  -10.52615505376623
C          -9.55110254330416  -26.77628854173897  -10.23497457594163
C          -8.85257077855755  -25.08558559672889   -7.09006913612698
C          -9.28925878975762  -24.66127987936998   -5.86434696981201
C         -10.60822046539440  -24.24426584672174   -5.59732749466908
N         -11.65741306810824  -23.85617983393495   -5.33926070418442
C          -8.48001371229175  -24.65564706587103   -4.70884591870513
N          -7.89266676440408  -24.69796037891980   -3.72374818838460
H          -1.50252967970731    3.30058550129692   -0.14799143461433
H           0.16972794502245    3.10538686201063   -1.93259591695465
H           0.13787085422052    1.20530330991837   -3.48883213921661
H          -1.58539022571199   -0.54214137342038   -3.30249765996652
H          -5.37627073856154   -0.13727882750923    1.72063304206448
H          -3.33277357753271   -2.68818468125179    0.08059056364490
H          -7.79780252924894   -4.19943638940516    1.64865553262526
H          -7.19054987899186   -1.81128780396567    1.72648872114283
H          -2.73760410595517   -6.20169476798147   -1.83686047267689
H          -2.80553620591514   -4.44859960339890   -1.66926757269564
H          -5.09618411964865   -6.28143452553059   -2.52548810241739
H          -4.23711869857767   -5.10902546322107   -3.52834912026579
H          -5.28654093846664   -4.55671024911338   -2.22350259980310
H          -1.90501855508756   -4.81547301245922    0.64560664583880
H          -2.00102320228327   -6.56624518594343    0.44833178771719
H          -3.40901029761334   -4.96218661076208    2.63815903046794
H          -1.96414945615259   -5.95405608977798    2.84510981604510
H          -3.50451165085245   -6.71167342973653    2.43410959134502
H          -3.64222567685927   -8.35226229423317   -0.59693395353102
H          -7.64524586145155   -9.13702589378453    0.72012668663464
H          -7.97295228516683   -6.76478618248248    1.23966228653891
H          -7.46759011519211  -10.79297461947812   -0.74073709448749
H          -7.39762046232415  -13.97671213815811   -1.61526669955087
H          -3.21165515719992  -13.86312053959084   -1.06382491659252
H          -3.28872314957016  -10.67426246408556   -0.16410243571943
H          -4.02262023793005  -16.09215112857276   -1.70859316760871
H          -6.92721326189561  -16.06045671542477   -2.65523591125986
H          -7.47894950148592  -17.74669808097089   -4.19836889510438
H          -3.76771223710983  -20.57422995177702   -2.50749239167910
H          -4.05402677999711  -18.28318138528153   -1.68177569751292
H          -9.28953575704287  -21.18171028730924   -5.64802696437928
H          -9.26221681326156  -19.57280868230055   -4.92861459028010
H          -8.40192339846254  -22.12376820423374   -3.47452867839807
H          -9.96461265711793  -21.32692309994171   -3.29833149790227
H          -8.48980038841612  -20.50855421451994   -2.77496217837724
H          -7.74374279456023  -18.68885169797880   -6.61824360269472
H          -7.82542057467259  -20.24478470648708   -7.44527523735067
H          -5.25679819942638  -18.86273740178248   -6.52606929615434
H          -5.84825283611004  -18.94984207679515   -8.18667338446515
H          -5.33170260260978  -20.41815097235242   -7.35459646901566
H          -7.67897714429350  -22.76150820257964   -6.91244317877162
H          -4.37717382186337  -24.83568925199240   -5.13107923350247
H          -3.87139129477504  -22.87702549428399   -3.72426042358143
H          -5.43114981035370  -25.67422863571604   -7.14351777189462
H         -11.55900300965379  -24.40822911415058   -7.88244543557803
H         -12.58330949880466  -25.29352942881464   -9.93841426229639
H         -11.32280005148387  -26.78976850151474  -11.42312098069574
H          -9.01229666012391  -27.43012209417695  -10.90080861844484
