112
 SCF done       -205.205097973116          0.000695129464
C          -3.72656329362698    3.57746038309892   -3.73643809805182
C          -3.00956088358451    3.82854232015321   -4.89710847986294
C          -2.30608963831805    2.81904428394661   -5.53831919990839
C          -2.29151474866044    1.52843544405753   -5.03091698302388
C          -3.00377326716877    1.26676603423373   -3.87296104646081
C          -3.73035994740736    2.29008818365724   -3.22316644719863
C          -4.39659900435612    1.72795982601478   -2.05376350421910
C          -5.10834636297075    2.43391092347701   -1.11966376618425
C          -5.28778079213212    3.83285111102407   -1.15286287405828
N          -5.47202274198529    4.96531424295002   -1.11528556964607
C          -5.72906636038830    1.88454612172033    0.02120435403418
N          -6.25773990835464    1.50720751431896    0.96856896435629
C          -4.17180533045919    0.28956923433406   -2.09505037945166
C          -3.13886921060749    0.04724595507685   -3.09292455138524
C          -2.25245219740798   -0.99754634361730   -3.09387553629533
C          -2.21445909554292   -1.98793971758912   -2.08998444731853
N          -2.11660578749473   -2.77889210163165   -1.26375288069408
C          -1.21822766165912   -1.15133317894836   -4.03819682268568
N          -0.37149195173640   -1.33952229784475   -4.79012258071508
C          -4.89101105163974   -0.63668721023183   -1.38684316115526
C          -5.06541874826417   -2.00676641470008   -1.66847993232046
S          -4.85351244431804   -2.71451515108070   -3.25409405251800
C          -5.32289144548531   -4.27998916025289   -2.66935485085939
C          -5.64084182467041   -4.23230540021800   -1.32170453298363
C          -5.52426202282411   -2.96453889908002   -0.77465885686501
C          -5.31640157454137   -5.40143293673014   -3.52875863208425
C          -5.05773934434556   -5.43066390480010   -4.88725161824224
C          -5.07696905189673   -6.70998482578880   -5.42664164814518
C          -5.34105270317011   -7.69697808325388   -4.49294007976269
S          -5.59979585972836   -7.00817928295772   -2.91600419936344
C          -5.34773116950306   -9.09691167356939   -4.69254379850485
S          -5.06252086552945   -9.78041552428641   -6.26622215491281
C          -5.09559259105352  -11.40218410046053   -5.62329982912415
C          -5.34887234706431  -11.37606810452831   -4.25871659441833
C          -5.49294657855248  -10.09601983730548   -3.74405321165149
C          -4.81962169565462  -12.49175925777777   -6.47789513349436
C          -4.59232331648396  -13.76858406924927   -6.05723325960327
C          -4.19767721184725  -14.83363076573268   -6.88927935574041
C          -4.08261265270002  -14.94551444943810   -8.25412592933899
C          -3.52095095436258  -16.20373462409403   -8.60826452026101
C          -3.24929428216066  -16.94491240376295   -7.48318815887122
C          -3.71335124870330  -16.13019968289354   -6.30986319805750
O          -3.69393598254445  -16.44930250997654   -5.14731965639431
C          -2.60336397731486  -18.18065680669115   -7.29547240698182
C          -2.01524431641742  -18.91661432820404   -8.28222597123608
C          -1.25357897492855  -20.08476784006111   -8.06713994435585
S          -0.42733267439255  -20.83168115677672   -9.41154045911097
C           0.30758906940082  -22.01347479847866   -8.36911980948240
C          -0.10261088081439  -21.83248085464912   -7.05829145374916
C          -0.96979594448281  -20.76350109072582   -6.88952518842374
C           1.22753882982741  -22.96319153706482   -8.87097970340713
C           1.63302113811732  -23.14720595779109  -10.18074417600163
C           2.59609580464717  -24.13757179341943  -10.32902007633956
C           2.95720075136373  -24.73845621611701   -9.13527327612676
S           2.06068602579616  -24.05855021130190   -7.80617050199796
C           3.92900873004006  -25.74810820720947   -8.92942497306785
S           4.26792938896070  -26.37882783185609   -7.35083190194139
C           5.50426942205252  -27.43665379156836   -7.98058939089004
C           5.61570730478093  -27.28410284311734   -9.35569173709252
C           4.74033587935840  -26.34901149227905   -9.88318534145135
C           6.19353158206575  -28.30157806774266   -7.10733165988087
C           7.24973189160389  -29.08951645151718   -7.45800769885209
C           7.95527502636927  -29.94454722360322   -6.58357652967384
C           7.52620673125201  -30.53052183631377   -5.41937507323602
C           8.41909662642580  -31.01867586770795   -4.37551038417813
C           9.76627712377648  -31.25257463574217   -4.46833944327852
C          10.55810047884293  -31.09929349131343   -5.62558777468004
N          11.27549915062710  -31.01045457170037   -6.51836811830950
C          10.56092991368559  -31.72969499253422   -3.40427028351572
N          11.27033995739986  -32.11330418257113   -2.58719647217050
C           7.60769422488132  -31.20903678129991   -3.17955173495429
C           6.25087163682521  -30.99878042403331   -3.51176857260630
C           5.26396862255724  -31.09211762080879   -2.54456249339942
C           5.63711298215944  -31.40231260997774   -1.24545852525732
C           6.96778055951303  -31.62025616122519   -0.91907322640127
C           7.96500108135568  -31.52561058938553   -1.87839657773065
C           6.16419297533731  -30.71987621027904   -4.93791670294187
C           5.03681373559876  -30.88434490097159   -5.69995904061863
C           3.76301173190705  -31.17285218443805   -5.16894724423449
N           2.69803556371900  -31.38994794377598   -4.79919390854484
C           5.00682204229802  -30.86736021806584   -7.10909172938458
N           4.90943812986019  -30.91014967522366   -8.25219919176452
H          -4.26863403284021    4.37464119902281   -3.25521364731669
H          -3.00330913400617    4.82693605354228   -5.30705990913130
H          -1.76195853477061    3.03837732681626   -6.44425043453655
H          -1.74645050219832    0.74877479837281   -5.53815033957375
H          -5.46481310275664   -0.28641303548748   -0.53836832292904
H          -5.94976972295308   -5.10537024966517   -0.77507162766687
H          -5.72646979901488   -2.73086726519444    0.25530692789343
H          -4.85584522155640   -4.53795195531228   -5.45261390893740
H          -4.88996586955267   -6.93450130965200   -6.46165676702984
H          -5.42434833174148  -12.26739163421656   -3.66346667384573
H          -5.68240658176015   -9.87621986593082   -2.70790348046088
H          -4.72442632909385  -12.26038253613736   -7.52994207557803
H          -4.64085537243756  -14.00339396653813   -5.00218390986007
H          -4.36667735934099  -14.20011820317498   -8.97540996567644
H          -3.33595413701591  -16.50428574315091   -9.62404930922887
H          -2.54011899712466  -18.51244894864838   -6.26762354028577
H          -2.08254961356011  -18.57281021739114   -9.30526983337648
H           0.23899558411640  -22.46861257920165   -6.26048133502700
H          -1.38117376089767  -20.47795199840872   -5.93893900646754
H           1.23278151538573  -22.56570028912801  -10.99226738609052
H           3.02639410153939  -24.41173733402891  -11.27455634818966
H           6.30605416185889  -27.85330182919510   -9.95024380748251
H           4.68618206878301  -26.10542433451495  -10.92830963384593
H           5.86215129865648  -28.29168853082188   -6.07615691059336
H           7.65783733803867  -28.99396899634356   -8.45394889574708
H           8.99157812707246  -30.10387942069283   -6.85171759007943
H           4.22781947603417  -30.91663828830590   -2.78415511586158
H           4.87973112091285  -31.47290602014065   -0.47981264138173
H           7.23563204283717  -31.86327393717684    0.09781443137990
H           8.99341737294825  -31.69175715824993   -1.60377403362357
