113
 SCF done       -215.191391638119          0.000824046012
C          -1.97873713512649    0.19801007091164    3.95747231973802
C          -0.65159292373999    0.31892385400917    3.57259235953175
C           0.09362346203183   -0.79317476831989    3.20773023866971
C          -0.46531167347848   -2.06227307720303    3.22604002140674
C          -1.78920380512688   -2.19453833484290    3.60869436148042
C          -2.55424299258801   -1.06271585348275    3.97098354591685
C          -3.90745915824053   -1.49292464647750    4.30336764116498
C          -4.90215375446856   -0.69556433472577    4.80516267599694
C          -4.74706909815602    0.67738940262104    5.09102429616235
N          -4.69231975797046    1.79508418766062    5.34672219649766
C          -6.20129915081244   -1.12536973060337    5.14658404311781
N          -7.27448937993191   -1.40196540266885    5.44850875252991
C          -3.98502595471534   -2.91245743818749    3.98472649123024
C          -2.62162152610105   -3.37610972518226    3.76741970914221
C          -2.16272079084994   -4.64806492338777    3.98673851390943
C          -2.96929565384105   -5.69126429854118    4.48831006230986
N          -3.57777883233626   -6.54767890941753    4.95093405621671
C          -0.81620836812493   -5.03514612234456    3.83759999483220
N           0.26120812444448   -5.41022142041490    3.71097843636157
C          -5.15005354968274   -3.61425907883724    3.82784356221674
C          -5.36802157339812   -4.81837150521807    3.12793429449747
S          -4.32614000553594   -5.43284285893310    1.86329489845715
C          -5.38457587111095   -6.77862554036441    1.58105953917837
C          -6.48550763415351   -6.72981700179065    2.42064183661972
C          -6.48780951707871   -5.62766597771900    3.25993033413385
C          -5.08120902242117   -7.75851312588013    0.60825646587567
C          -4.01310931645956   -7.80290005003912   -0.26778352752869
C          -4.01125904623232   -8.92982406675984   -1.08268413514024
C          -5.07407202466923   -9.78129191103888   -0.84517038551360
S          -6.10444713141728   -9.15518789822750    0.40891132051413
C          -5.36317302124503  -11.02402864109032   -1.45975000376829
S          -4.39228466029444  -11.65266317600929   -2.75935677884825
C          -5.35991197267082  -13.09957241930374   -2.84905760790130
C          -6.37792962743408  -13.05962198768045   -1.91058545462109
C          -6.38132370200320  -11.90344715938092   -1.14109858129997
C          -5.04154489293440  -14.10712824741873   -3.79290820554261
C          -5.65559615609490  -15.31640164423725   -3.85666516920633
C          -5.36108239538347  -16.33230286586273   -4.78954753762533
S          -4.20440112197628  -16.15815785974618   -6.09933641950980
C          -4.46271084601798  -17.76939727282532   -6.71538347877493
C          -5.40981408057734  -18.42432301284618   -5.92264530503074
C          -5.90214980012042  -17.60705490063156   -4.85907908525264
N          -6.81339445462230  -18.33032184478461   -4.15749599403341
C          -6.90665082446122  -19.57033843502573   -4.74539763768450
N          -7.78746974352269  -20.52266339779537   -4.20613520629794
O          -8.42992820206651  -20.17176703110791   -3.22675377048757
O          -7.85146890216028  -21.61335830584234   -4.73575263863357
C          -6.06393494265988  -19.67178079621048   -5.83164211782986
C          -3.79299587753828  -18.24708538967386   -7.85652155766918
S          -4.05759526531523  -19.87114821612127   -8.42900311604546
C          -2.97693693763042  -19.62480793641444   -9.76873632011687
C          -2.44800732399940  -18.34523247507264   -9.74557986522164
C          -2.89951863148966  -17.57865710789287   -8.67904870944386
C          -2.75375721310433  -20.65871109016708  -10.71328152910789
C          -2.03297748777308  -20.60763575045095  -11.89315885946265
C          -2.04577628029194  -21.80590979084305  -12.59990865326194
C          -2.76811636562610  -22.80602396021949  -11.97698477224884
S          -3.44677492759044  -22.23663617452587  -10.47904709829885
C          -2.99663694634761  -24.13424150364018  -12.41099239681456
S          -2.44912404993098  -24.69642517531293  -13.95806242608216
C          -3.12363686237576  -26.28169593416154  -13.67376189686716
C          -3.72901979130393  -26.33504068329601  -12.42718178870659
C          -3.66262301776951  -25.13994632776996  -11.72810493889146
C          -3.05193805228241  -27.26583292759189  -14.68220393712006
C          -3.44455795180546  -28.56179522023853  -14.53504889502222
C          -3.39431451241827  -29.54955111143387  -15.54588516828017
C          -3.45852149467358  -29.38400839163395  -16.90450984816000
C          -2.98930587998188  -30.36725384801715  -17.87409681052086
C          -2.70138217935602  -31.68803890527751  -17.65185250495213
C          -2.84901123178338  -32.37274993322777  -16.42714734284329
N          -2.94013535584102  -33.00473835449251  -15.47245368838838
C          -2.24668222612472  -32.57684447691148  -18.64936179700457
N          -1.87829351716307  -33.35599759654512  -19.40754832198914
C          -2.87157845590038  -29.67679476792759  -19.15233578469521
C          -3.39246682373974  -28.37060535617863  -19.01505894141955
C          -3.38119376646237  -27.48949473902342  -20.08376364025109
C          -2.85306363538948  -27.91997210101889  -21.29143203909130
C          -2.35109785787118  -29.20585751637031  -21.43180143359598
C          -2.35368496488256  -30.09554103837096  -20.36793957838722
C          -3.90294990311527  -28.21895978368050  -17.66068202957779
C          -4.84305154845765  -27.29964648360207  -17.27569243831818
C          -5.29442908505690  -26.24480313406367  -18.09505159455233
N          -5.68712957115126  -25.35390829551794  -18.70333745249967
C          -5.53864445293077  -27.32665973401355  -16.04946470948160
N          -6.17653444277800  -27.30825017851642  -15.09538138740596
H          -2.54135130190764    1.07422204534849    4.23438273800082
H          -0.19493808610851    1.29669995617679    3.55531482009151
H           1.12248300093969   -0.67170423332632    2.90518700816041
H           0.11933647932286   -2.92040295771676    2.93612526459081
H          -6.05560016062161   -3.17371585369259    4.22554653653187
H          -7.25391881146668   -7.48189501979548    2.40168316861801
H          -7.25849950979769   -5.41959297512502    3.98039457821849
H          -3.26333170960209   -7.03207173442279   -0.29944542989674
H          -3.26022503794990   -9.14075146430923   -1.82308141165155
H          -7.10156909319733  -13.84542779279616   -1.79487430577143
H          -7.09457114515422  -11.69592583114955   -0.36281456705876
H          -4.24564925711626  -13.88767741893741   -4.49212846588878
H          -6.43157142634173  -15.55977181863519   -3.14377558672154
H          -7.35051844796926  -18.06718915652539   -3.34658285997926
H          -5.95045546966377  -20.53251671826134   -6.45782690842777
H          -1.75343961338451  -17.98855518832154  -10.48382361538445
H          -2.60240111003088  -16.56152586096613   -8.49469008994450
H          -1.52500858389621  -19.72261090458951  -12.22972837139624
H          -1.54791508695690  -21.95783299579557  -13.54130542103929
H          -4.22283217972626  -27.21397024693216  -12.05663619049145
H          -4.08377753533656  -24.98503899193121  -10.75037846592174
H          -2.62754046148198  -26.94616531657315  -15.62628383421106
H          -3.73233070257074  -28.90824704128482  -13.55274389602745
H          -3.23687376429278  -30.55718080424070  -15.18383447225816
H          -3.76175032128956  -26.48590385845552  -19.98464673486870
H          -2.83305984465953  -27.24301629033759  -22.13173370389021
H          -1.94804269570618  -29.52120871174933  -22.38201902555989
H          -1.95414183210364  -31.08793191291803  -20.49516041466148
