111
 SCF done       -204.078882487631          0.000973127336
C          -5.12275814910869  -10.92051133277526    7.09210311718630
C          -6.31815682453825  -11.62153477001913    7.05911505506010
C          -7.51182451013025  -10.98789785472973    6.73787912481715
C          -7.54551347381730   -9.63537074715887    6.43233706640621
C          -6.35793564773613   -8.92288067465130    6.45822221177789
C          -5.14195334018311   -9.56570973439214    6.79552401176361
C          -4.06844447564060   -8.58847271190800    6.75451767730097
C          -2.72400778772178   -8.82954006839672    6.80449271392264
C          -2.15833110683125  -10.11337931016717    6.97137613359264
N          -1.64133873124402  -11.12805627023333    7.10675059115408
C          -1.72996620973840   -7.84424905852632    6.62134833380525
N          -0.87732279438092   -7.09497641598981    6.44671451552629
C          -4.70666262907271   -7.27961171533601    6.59487907222790
C          -6.07923273872325   -7.52858899571411    6.14900993861256
C          -6.84825821360221   -6.69634257005757    5.39318759157103
C          -6.39269379331894   -5.46488323648799    4.86918086372089
N          -6.02780405227129   -4.51760096235634    4.33501780668070
C          -8.14188705128942   -7.02982305524852    4.93403421370420
N          -9.19199611145632   -7.26258026683718    4.53712345862119
C          -4.13176579211362   -6.11513376133848    6.98404334005276
C          -4.75388577608600   -4.84118230135601    7.12983477455482
N          -6.05261481318902   -4.68293163202013    7.31336782454039
C          -6.24366380693254   -3.35108617529282    7.44948570051202
C          -4.98042725801654   -2.61658863580198    7.33940576867879
C          -5.21389608331834   -1.16952119204340    7.46460914337772
O          -4.40531344310054   -0.26872565421085    7.42917333981577
C          -6.67895842618162   -1.09351722821176    7.64517278208631
C          -7.26477711934608   -2.45366470094314    7.63712426371348
N          -8.60939564755722   -2.39786952630957    7.80227416809645
C          -8.88858937451584   -1.12307893650308    7.90133845995633
C          -7.72704748103247   -0.25097574434726    7.80945504527659
C          -4.00436818587592   -3.56406438734847    7.14262250412343
C          -2.60163084010792   -3.45532513521081    6.95248765269359
C          -1.94615412037907   -2.26885843466355    6.88671159838118
C          -0.54583987422338   -2.12100504397887    6.68242485959152
S          -0.01038809878621   -0.65113874458282    5.94383360464772
C           1.63418776641419   -1.22226023064225    5.85766000395330
C           1.74108304812494   -2.50922415044986    6.40549806153605
C           0.52620352109677   -2.98776583795868    6.92057708737787
C           0.42155836256481   -4.22241227770416    7.80036673685887
N          -0.30842217802632   -4.01057348961033    9.03760236712019
C           1.82047024059375   -4.72176903838952    8.16247613543344
C           2.68097276037100   -4.76357333218982    6.91471519708689
C           2.99964018867365   -3.33615683485522    6.44866502490658
N           3.68547555482161   -3.32740770590837    5.15709724015467
C           2.55243126844724   -0.28959227729675    5.33048448697766
C           3.89743142628471   -0.42200202010160    5.14734696221885
C           4.66721109477239    0.64261306897687    4.63496167693002
N           4.14813837498675    1.83044331154701    4.32183948972331
C           5.16995546307124    2.58773992830799    3.90786372593389
C           6.44725107359815    1.85409554696046    3.96767432931199
C           7.55867321674077    2.70228812454022    3.49661119363681
O           8.73292721323662    2.41424409932370    3.40779812803414
C           6.87905024069167    3.96040776881269    3.16006223859168
C           5.42866150854984    3.85328496977054    3.42529232221889
N           4.80100175945205    5.00748846001182    3.11381403519629
C           5.74834010691622    5.80988974640724    2.67962404688130
C           7.06611111852549    5.21994934063607    2.68033578100991
C           6.13677214050563    0.59816536985179    4.41707430473683
C           6.96468922090455   -0.52317943879287    4.69262869144226
C           8.31848545168263   -0.47375208397159    4.72351872814135
C           9.15290148045043   -1.58671972358510    5.02439503437024
C           8.87124528187874   -2.65016725796945    5.83213755600922
C           9.57596153486561   -3.93028045989805    5.78217052225011
C          10.82288277532260   -4.17213537358965    5.27728914014147
C          11.70366960861179   -3.19337087473998    4.76563924967902
N          12.48258528996691   -2.46119989693810    4.34843803763380
C          11.42894556226108   -5.44705311775094    5.24672748992682
N          11.97482202259124   -6.45470398682828    5.18922705162498
C           8.69143416302117   -4.91744246125860    6.38736110875834
C           7.58320361761817   -4.25027430943362    6.95703185996924
C           6.58794992198237   -4.96521266661411    7.60489575798652
C           6.69694391238397   -6.34543483921757    7.67104079660765
C           7.78400127356716   -7.00184467851098    7.11046632149847
C           8.79116320436892   -6.29805660433583    6.46806819885119
C           7.75186531709198   -2.81948078482262    6.75735674243466
C           7.12981072140439   -1.83860806811185    7.48180038577493
C           6.03962054900784   -2.07264690581356    8.34042445449453
N           5.10130793060040   -2.21229927806654    8.98893803968588
C           7.50526055523506   -0.47727898955399    7.47670495801329
N           7.79071249704632    0.62917395068575    7.57366434069089
H          -4.20477165920766  -11.42281138693248    7.35125475951751
H          -6.31915298975237  -12.67536673560370    7.29120256543558
H          -8.42961978130579  -11.55529196184474    6.72596544404643
H          -8.47898545516069   -9.15299602198911    6.19222680425486
H          -3.09479954813580   -6.14869261163030    7.28928722662095
H          -9.90500479059419   -0.79819486134090    8.04067264677241
H          -7.74701888582781    0.81925034264091    7.86607062083827
H          -2.05486857935658   -4.37625199615254    6.81197460998597
H          -2.51974256602687   -1.35052765846865    6.92360092976266
H          -0.08588688088602   -5.02312658500306    7.24733978706469
H           0.13491706921748   -3.28203671530799    9.58671838719506
H          -1.27055713163007   -3.73884582998999    8.87575414861704
H           2.27052062895135   -4.05062792307858    8.89727586316404
H           1.72972748488008   -5.70863844381532    8.61426544194603
H           2.14827532408221   -5.29589626435052    6.12140611437730
H           3.61626231894640   -5.29348622741786    7.10714363352161
H           3.68016347090573   -2.87134076252299    7.17790515560055
H           3.04517838791643   -3.60671118510481    4.42082591314923
H           4.44037241759042   -4.00641657899406    5.17705057756893
H           2.12964761041429    0.67048249835276    5.05757293680885
H           4.38068949625320   -1.35994741121975    5.36225847637503
H           5.50735752371705    6.81014264882516    2.36405189820580
H           7.96866699215596    5.70431478312638    2.36439281836276
H           6.45595988768972   -1.46085349076409    4.88100149962032
H           8.81789115238900    0.43862975679553    4.42032448990591
H          10.09972590549430   -1.59813108963899    4.49942383987386
H           5.74250877762463   -4.46593633375519    8.04926253824703
H           5.92649067895911   -6.91538062936080    8.16803525756651
H           7.84981333351078   -8.07693183359254    7.17595439916284
H           9.62805642704707   -6.82462719705120    6.04030784744340
