94
 SCF done       -166.900152111948          0.000524023427
C           0.45972746897845   -1.55951777173120   -2.45118762594597
C           1.10552140328582   -2.64562133825882   -3.02570466993449
C           0.39006134085565   -3.66801023010713   -3.63056591407383
C          -0.99553121753615   -3.62954785862380   -3.68479935884098
C          -1.64973164674197   -2.55612029065244   -3.10599204841973
C          -0.92415015169736   -1.51539542818810   -2.48395257764776
C          -1.86884053494962   -0.53321544844376   -1.95919488802095
C          -1.53408347399733    0.64544411741533   -1.34054622891125
C          -0.21026030108905    1.08522596462984   -1.13702502031693
N           0.84009858644364    1.50478815513553   -0.93764586983494
C          -2.44937642783565    1.59589590110619   -0.84576679181132
N          -3.13681058592614    2.41090147566042   -0.41681079192811
C          -3.20018922747539   -1.05997782787887   -2.20056610178360
C          -3.06177232459189   -2.21247036819449   -3.06254344635756
C          -4.03036242885119   -2.74052049438695   -3.88651429969158
C          -5.23642404996809   -2.06692177906263   -4.17113082445757
N          -6.18560070883496   -1.50292596968152   -4.48577648569403
C          -3.94317286903293   -3.98406906363728   -4.52313625881622
N          -4.00525419245215   -5.04760234839491   -4.96280399665596
C          -4.33481007367068   -0.62634640154335   -1.54037838348860
C          -5.53872298854264   -1.30422184860150   -1.34140743569311
O          -5.73034623713677   -2.59067116003578   -1.74191482274477
C          -6.98245469253725   -2.95738294324713   -1.40013523367460
C          -7.60438130318028   -1.90507068297737   -0.72776555242522
C          -6.70037302656154   -0.84986165333404   -0.68453077608446
C          -6.90363393722752    0.49657870421918   -0.09834716227662
C          -7.47130525258250   -4.21738903063071   -1.81470191296330
C          -6.71754471377725   -5.03273912658023   -2.60406152997195
C          -7.09357745720529   -6.24992396282443   -3.20338770692236
N          -6.23139320333203   -6.87636192683470   -4.08220343209225
C          -6.83752034391941   -7.99102751077641   -4.55195480585333
C          -6.68223160039601   -9.07749556621202   -5.40321596398920
C          -7.86804119425622   -9.82094394099913   -5.30740568477828
N          -8.72205616731256   -9.20668407754924   -4.41158610275150
C          -8.11856894142914   -8.08804359242212   -3.93331230837414
C          -8.27815130405610   -7.00046037935887   -3.08952088643564
C          -8.25601249719799  -11.00018827008983   -5.98371415352910
C          -7.46617087091322  -11.71916308186090   -6.82492188459121
C          -7.91485218991677  -12.86511579726632   -7.52146440602963
O          -9.20005560941489  -13.26922110560940   -7.42847800216095
C          -9.35227595047593  -14.35605939471734   -8.22227106311586
C          -8.13003076559124  -14.66522370807693   -8.81741336714127
C          -7.20854012535656  -13.71741790344431   -8.38213403178614
C          -5.77114745847974  -13.61332022274776   -8.74693249819806
C         -10.61448379700028  -14.95053089666194   -8.40092123513390
C         -11.74928153938703  -14.52354077849222   -7.77086122082226
C         -13.04130992968022  -15.06150996248216   -7.92290522721993
C         -13.55530853080596  -15.80375779377757   -8.96059203779939
C         -14.71806615951884  -16.67119294514336   -8.84121643034595
C         -15.65997916555626  -16.67909634404176   -7.84412214070390
C         -15.70308424443720  -15.80631700814666   -6.73758584112662
N         -15.81746392522943  -15.13668161030547   -5.81087887011083
C         -16.76782831343026  -17.55156094957991   -7.81112153502031
N         -17.69294182465746  -18.22535917129632   -7.71832155725684
C         -14.70644164208737  -17.55724836064302   -9.99963500001188
C         -13.67451899791741  -17.14852882037095  -10.87326309472780
C         -13.42529333741681  -17.84158111609125  -12.04568985763940
C         -14.21359948146420  -18.94312767787572  -12.34420996377475
C         -15.23466133018166  -19.33975622499183  -11.49340597582985
C         -15.49221987754715  -18.65388989983459  -10.31535496510459
C         -13.04459873439283  -15.96076332633176  -10.31358524462019
C         -12.33455502423549  -15.03675287540175  -11.03739735717002
C         -11.94388740850228  -15.21999241162524  -12.37857423969477
N         -11.57402909450392  -15.32109643931842  -13.46111864168468
C         -11.97273055310272  -13.75834948878711  -10.56747471741370
N         -11.69062519416094  -12.68555149322812  -10.27118038829651
H           1.03555812930913   -0.77326644788726   -1.99179513296311
H           2.18358095435347   -2.69128971330008   -3.00016620979340
H           0.91561426082314   -4.50335090693887   -4.06791325701454
H          -1.54489801749877   -4.42699935144539   -4.16026655501388
H          -4.27789202334810    0.31812985386392   -1.01990457691178
H          -8.60248227896425   -1.91610861227977   -0.33935288485004
H          -7.84569868881970    0.53496949710509    0.44151201997654
H          -6.92002191602867    1.24969587511861   -0.88562372583152
H          -6.09156108963496    0.75031105646134    0.58172102157542
H          -8.48021589794769   -4.47094132445800   -1.53326591337626
H          -5.71542867505937   -4.70109209259790   -2.83785809738124
H          -5.35846880510924   -6.47293022570103   -4.40291471544068
H          -5.84457526056089   -9.30894474613048   -6.02815307088168
H          -9.63885920647335   -9.54561164237599   -4.17566016172726
H          -9.11424928522698   -6.75662097943347   -2.46641186090453
H          -9.26787984494803  -11.34549430057555   -5.81601392492423
H          -6.44328092927445  -11.42748133793954   -7.00205964874734
H          -7.95217483693153  -15.47641214623130   -9.49465664731040
H          -5.49393148030974  -14.42642645574309   -9.41184205823759
H          -5.14538744225017  -13.65837618215434   -7.85659622449944
H          -5.57413010606284  -12.66788034138715   -9.25060130151116
H         -10.63823272211760  -15.79918844600125   -9.07010068980144
H         -11.63850587754469  -13.75005694648136   -7.02324857431455
H         -13.69419493406741  -14.90905885083834   -7.07351617059410
H         -12.63071945281609  -17.54651390045860  -12.71170975088185
H         -14.02661441716682  -19.49765177599162  -13.25111748530555
H         -15.83786885361908  -20.19830365486185  -11.74644423648621
H         -16.28595393510784  -18.98137511191873   -9.66455228824222
