126
 SCF done       -232.511459830555          0.000718920672
C          -0.53642293122787    9.49508501641234   -3.59227617086055
C          -1.02656066284361   10.77659090055543   -3.79065496791194
C          -2.15478050754956   11.22592173608707   -3.11611873436791
C          -2.82401061787803   10.40907317651124   -2.21726252018599
C          -2.34469285455430    9.12609810016509   -2.00888305401088
C          -1.19899821656649    8.66388011407504   -2.70143721923962
C          -0.92539030702571    7.29368183000224   -2.30177513498581
C           0.19082384501800    6.55789234315542   -2.57947608721214
C           1.26659360488920    7.01738176562328   -3.37116473442972
N           2.16742804860877    7.33632944766083   -4.00483541243694
C           0.43643495333985    5.27383444531034   -2.04931929461058
N           0.69468329833435    4.24238280283554   -1.61723877936770
C          -2.07771492521602    6.86137757301015   -1.50862318987278
C          -2.80700667341439    8.07279298911009   -1.12258276821435
C          -3.58221960215043    8.21387383446277   -0.01052378617283
C          -3.74503400382984    7.18629192714968    0.94487247496771
N          -3.83388227499421    6.39479586140062    1.77110554359647
C          -4.20969450697667    9.42351562686559    0.35895752779704
N          -4.73442019151264   10.38663096061103    0.69316965813344
C          -2.48264822488681    5.58205629178434   -1.33651816590285
C          -3.79071498981311    5.19531890358766   -0.88924937592440
N          -4.86519615366864    5.84042164503763   -1.30340653931696
C          -5.92338681956638    5.15460612805841   -0.80317759034762
C          -5.47443831520112    3.98788801062625   -0.04056310666419
C          -6.61623836650345    3.27318463220082    0.54733803586710
O          -6.60899260890443    2.28540755790680    1.24485899098890
C          -7.76554906369026    4.08631727084204    0.08780808332275
C          -7.28983295582028    5.22289785358739   -0.73733071165065
N          -8.33315362797347    5.99658215095812   -1.13268263075381
C          -9.39201477564528    5.43418901317304   -0.61101243062337
C          -9.10761805925987    4.24368954933520    0.17639939589752
C          -4.10530436234761    4.00982313954798   -0.06250372397113
C          -3.20897125227493    3.14086877343484    0.62360778936916
C          -1.92635782885018    3.41751503342703    0.91464764035486
C          -1.05253314742173    2.50746323094862    1.63123903885613
C           0.21008550026049    2.25040610759455    1.07504474261008
C           1.04679916226746    1.27820700524707    1.57679194263248
C           0.67215612446435    0.53547129562886    2.69353977414880
C          -0.52425772208193    0.82829452867227    3.30338323124261
C          -1.38987787280407    1.81467361932549    2.79914814426884
N          -2.46662709274665    1.96925396249123    3.65492996143294
C          -3.46259120880620    3.00999312797808    3.65057314874909
C          -2.37668872894573    1.11890023576735    4.72858327800828
O          -3.16744527372665    1.05328178006342    5.63536759811588
C          -1.09777581756490    0.29690785841322    4.57877406034008
C          -0.18794093850238    0.58783865513217    5.79091772511513
C           0.31556614998219    2.02926781402825    5.68272347587537
O          -0.34792221800985    3.03481254891996    5.61782049569459
N           1.68324741343720    1.98815776883084    5.62275825331542
C           2.50373284348321    3.15761403980898    5.46151578639345
C           2.15528800665315    0.68907945973741    5.67195041337112
C           3.45387443816482    0.23878036105402    5.59651621787018
C           3.69070800281608   -1.14697310815388    5.63973981145672
C           2.60701684823936   -2.02604601777802    5.78357248998718
C           1.30476581962360   -1.56082141668633    5.86166887830142
C           1.07702597613053   -0.20224910317615    5.79599961271496
C           5.04955643207575   -1.59771157738599    5.51296112155092
C           5.48874475516465   -2.87831104394089    5.44243514504480
C           6.86766749641556   -3.16958775782131    5.28273301276575
N           7.78580706656442   -2.21361854267021    5.18750477795036
C           8.96303965935104   -2.83971429461173    5.04072474500140
C           8.79768765929920   -4.30395747126603    5.02147147207108
C          10.10639593128234   -4.96631161666973    4.87828197738160
O          10.34627678124197   -6.15574122525178    4.80649708648297
C          11.03996597170759   -3.83509392425763    4.83397566828692
C          10.30430241647457   -2.55520513043501    4.92423355963441
N          11.16034677496907   -1.50927548579606    4.88699434466695
C          12.35509433939064   -2.04658270958358    4.79011996949885
C          12.35320722138768   -3.49233179040174    4.75705242711331
C           7.45308450953317   -4.53142818341418    5.18693364702895
C           6.74204160392366   -5.75733195524838    5.28664785533315
C           7.36290277419319   -6.95945626259773    5.18509297355860
C           6.69270946195807   -8.19822508355305    5.32194064861079
C           7.31987805050426   -9.39909963158476    5.48542210641457
C           6.71784225275471  -10.70894131946672    5.26156474643112
C           5.38244405653724  -11.00741828942303    5.24371737000074
C           4.34622267311055  -10.08353772223865    5.49686326307071
N           3.45840424246975   -9.38326381748057    5.69617927212898
C           4.86174057935892  -12.29762636338493    5.00636335064938
N           4.37336143401444  -13.31949380488339    4.82153725959124
C           7.81689451278945  -11.64108395623080    5.05418829365767
C           9.03981627098868  -10.97183663787452    5.29430845410196
C          10.24717966729131  -11.63273686802959    5.14090564934341
C          10.22831997488160  -12.96375913735940    4.75195504969586
C           9.02913446042008  -13.62575380668221    4.52718744111820
C           7.81389017691482  -12.97478506950706    4.67504939297395
C           8.74517680886944   -9.61345141654860    5.72448239179425
C           9.58110383210280   -8.79287333519044    6.42861155009195
C          10.94579609887884   -9.07376656069201    6.65742378658883
N          12.05721336023437   -9.25836835560868    6.87254627872456
C           9.16214889262790   -7.64130686392033    7.13319949207748
N           8.86180041365158   -6.75329238507877    7.79468662712571
H           0.33587555429576    9.15789285622751   -4.12845853465066
H          -0.52337667064690   11.43251595922362   -4.48425558343779
H          -2.51874424840759   12.22601050497897   -3.29451125390647
H          -3.70354077802501   10.76381990438153   -1.70482245631193
H          -1.84160120289381    4.76775726868583   -1.64888235132778
H         -10.36953081541693    5.85013879422717   -0.78342920430203
H          -9.83690281072083    3.64981860691811    0.69068565541142
H          -3.64980910407537    2.21488010124546    0.96742903930183
H          -1.46616645695307    4.32490537255003    0.54322767244067
H           0.50292012295758    2.80589770323737    0.19733572510978
H           1.99423985716940    1.08613620757746    1.09789562024701
H           1.31674541212872   -0.23869533477833    3.08147052433070
H          -3.03114143216839    3.94842962200956    3.30744548711497
H          -3.80912068568726    3.12033034731056    4.67848785492594
H          -4.31786509824465    2.74921526039892    3.02452034556483
H          -1.32739794573289   -0.77096674670199    4.54356918419501
H          -0.78422792772763    0.45665234057818    6.69949806373251
H           1.84014804828394    4.02130085578869    5.45186734880783
H           3.05344610899837    3.11214732168619    4.51915199080207
H           3.20863163501637    3.24898213136712    6.28965393856717
H           4.28157756342549    0.92218591986905    5.49185137679517
H           2.78393800797263   -3.08781627785674    5.83450311443396
H           0.48310754628966   -2.25269717536251    5.96677321884054
H           5.80905047224943   -0.82908231339692    5.44687473233314
H           4.80711911333465   -3.71331946800776    5.49633190338755
H          13.22827096266680   -1.41944073207804    4.74018841894684
H          13.22096400207774   -4.11768177550061    4.68627814011099
H           5.68368290004644   -5.71945920199722    5.50718610895534
H           8.42169753978699   -6.97527797289144    4.96640745654967
H           5.61565375091482   -8.18506030100549    5.22246002760852
H          11.18405359686634  -11.12604867051332    5.30608230269091
H          11.16137264980790  -13.49038829689527    4.62215800853231
H           9.03942625106741  -14.66271671688769    4.22822980576198
H           6.89226113341762  -13.50209685669611    4.49065701940299
