119
 SCF done       -222.276065665754          0.000633906282
C          -0.48322453611709   -2.34335096721179    3.47195940860959
C           0.41216295189037   -1.41254477323971    2.96864711151012
C           0.07714258829130   -0.61267741499557    1.88512733664567
C          -1.16604500216716   -0.71548308008367    1.28082417367527
C          -2.07419280036760   -1.63775861491369    1.77812385112319
C          -1.72890333627209   -2.46079346870059    2.87376993015344
C          -2.84090674800787   -3.35367336067244    3.15826371377374
C          -2.91707302764296   -4.23270826354898    4.20369195628266
C          -1.91158915895037   -4.38419838319177    5.18363313242110
N          -1.13655598260102   -4.56360625285496    6.01103234969497
C          -3.98731077022310   -5.11168455865192    4.47981717118770
N          -4.79170228329030   -5.87725765503537    4.77356811121642
C          -3.84608221112090   -3.12195216579308    2.12300344327824
C          -3.43607672076137   -1.94698921461226    1.36737188803021
C          -4.19271601641879   -1.17362583746231    0.52934471826262
C          -5.56702042982628   -1.29758182070400    0.26447334288738
N          -6.68641460968380   -1.24271402475157    0.00964935455481
C          -3.71918591369214   -0.01880525608420   -0.13171306932939
N          -3.42741122809579    0.93165458410099   -0.70564063540753
C          -4.92829491265885   -3.92538701133891    1.93673645242714
C          -5.82093597540604   -3.98964902503629    0.78287890533763
C          -7.20249821636900   -3.81810399285371    0.99837044941229
C          -7.52588270131035   -3.41942479753821    2.37494306187904
O          -6.59856684605248   -3.14843398237602    3.13190634433367
C          -8.90475625290705   -3.34355330196170    2.84924605277762
C          -9.95401196278921   -4.13809842691036    2.46705154001419
S         -11.36644447769174   -3.83522257764838    3.37919182737319
C         -10.55531353144773   -2.63868331207135    4.31308854737332
C          -9.26192706154666   -2.47748233471517    3.93543700536890
C          -8.29933408148913   -1.54387359592616    4.59344308528772
O          -8.12104007420753   -1.56578543928538    5.78853099300778
C          -7.61473484736053   -0.59324488563117    3.68681749446126
C          -6.33257659593395   -0.15697530524192    4.01282086897321
C          -5.68241143052040    0.75117276344242    3.19918138715281
C          -6.32062203997034    1.26000449394727    2.07882775651425
C          -7.60215261117038    0.84024485824663    1.75840724999120
C          -8.24315828881120   -0.09633604410257    2.54743063239685
C          -8.08466355439014   -3.87866897941870   -0.07587877905851
C          -7.61228105952750   -4.16852899017514   -1.33923548195813
C          -6.24891596416171   -4.37643142420800   -1.55079008657532
C          -5.35325267633329   -4.27251703381454   -0.48885673215345
C          -5.74889206682061   -4.70777103009387   -2.88321095930334
N          -4.45907599247724   -5.05541437012202   -2.99712154863136
C          -4.05325607548449   -5.42078656565519   -4.18657423769047
C          -4.96115863601231   -5.48187782281950   -5.25861534142947
N          -6.20863336170796   -5.06025687108280   -5.07486251726132
N          -6.59378683188782   -4.66176725840422   -3.90732666140207
C          -4.57509013902765   -5.98866686390468   -6.57860569948970
C          -4.65811898264633   -5.14834461189348   -7.69628120344888
C          -5.02271582735373   -3.72358581790031   -7.45480182105471
O          -4.50493317501847   -3.11353424569628   -6.53858606372142
C          -6.01196763698280   -3.11576992005764   -8.34123313795230
C          -6.74893522067377   -3.74715517138217   -9.31132485334645
S          -7.79678164675264   -2.68012189022035  -10.13067773103372
C          -7.25405916352075   -1.34968330773991   -9.17295768511230
C          -6.32959164546472   -1.72118771952319   -8.25612213292643
C          -5.68693645373056   -0.80084357591225   -7.26233403855010
O          -4.87494244838486    0.02507455318687   -7.60731950987540
C          -6.14400859787960   -0.97569266074919   -5.86773842835808
C          -7.28254254632148   -1.71318680495046   -5.54786301858120
C          -7.67257334460752   -1.84278381455506   -4.22917967535206
C          -6.92978408483869   -1.25148793073481   -3.21944870931309
C          -5.79355423393148   -0.52070254326010   -3.53108913207640
C          -5.40530804090401   -0.37604466062649   -4.84813691322447
C          -4.28047137021638   -5.63334691394956   -8.94223813008945
C          -3.84211556752887   -6.93500626593878   -9.08343474291827
C          -3.73371121899520   -7.77281986006346   -7.97086919977036
C          -4.12279663830905   -7.28896064419263   -6.72096133484306
C          -3.25813983020008   -9.13234776209659   -8.14277099172909
C          -2.48918438522819   -9.84164967910075   -7.28790176860656
C          -2.31273868687053  -11.29865583652296   -7.33360566937315
C          -2.45961103101133  -12.10587568511388   -8.42342040583875
C          -2.76055220659952  -11.64941147702728   -9.72643406455429
N          -2.99398951552092  -11.33836604218437  -10.80583950375733
C          -2.27956583717308  -13.50711683404739   -8.39836818197377
N          -2.14797722295907  -14.64565687851459   -8.43949570813449
C          -1.93123924029721  -11.70893181595876   -5.99127614158313
C          -1.67951959494936  -10.55605398834912   -5.20995687656123
C          -1.30507614586436  -10.67187151359247   -3.88040506224126
C          -1.18350417055816  -11.94080519812100   -3.33600690420995
C          -1.42434030843356  -13.07360370652716   -4.10260569726700
C          -1.79864540580736  -12.97187282012683   -5.43353378622157
C          -1.84772926764554   -9.38348065086118   -6.05017032812004
C          -1.31258327422345   -8.14681979443552   -5.83250235724977
C          -0.70585691354342   -7.75515280701562   -4.61999507886774
N          -0.24670361681298   -7.37457983273317   -3.64001880354730
C          -1.24431107002790   -7.13799629635863   -6.81957302557968
N          -1.09776269597408   -6.31873203207326   -7.60843550111540
H          -0.20358400910393   -2.96223674074039    4.30833845466660
H           1.38539385998094   -1.31472064725562    3.42478577319730
H           0.79343100653692    0.09890647772392    1.50377741592583
H          -1.40617644564446   -0.09368911574459    0.43425012922672
H          -5.02877495901825   -4.77241410757058    2.60610368126460
H          -9.95427221028286   -4.93062302849841    1.74515193356282
H         -11.08156272556022   -2.11209973683659    5.08400705373050
H          -5.86041326451512   -0.55465431579527    4.89842526310148
H          -4.68027189666672    1.07420951553030    3.44336875517499
H          -5.81619783750145    1.97792069924590    1.44866601222446
H          -8.09605796087126    1.23620764593165    0.88451908223681
H          -9.24188596951288   -0.42281578062053    2.29422773471329
H          -9.13021157222860   -3.66138968841800    0.06986697038517
H          -8.27861112222323   -4.22470513403290   -2.18449375868228
H          -4.29931497542693   -4.41768549511228   -0.67129316310496
H          -3.00327322321485   -5.65655390277144   -4.30324875970028
H          -6.74316695938363   -4.78693525633070   -9.57203014590231
H          -7.66829183987128   -0.37485253678258   -9.33525782101370
H          -7.86775030899668   -2.17979170689143   -6.32675047682512
H          -8.55992319595442   -2.40800185791553   -3.98914836147604
H          -7.23230152966141   -1.35727900945890   -2.18768853341157
H          -5.21653824316107   -0.05865221405438   -2.74323610916884
H          -4.52467607275691    0.18896548396877   -5.11325692496738
H          -4.30100473182101   -4.97802169134556   -9.79932101850556
H          -3.53675891792928   -7.30173395187377  -10.05145726389640
H          -4.10354091363010   -7.93951957020599   -5.85702144672525
H          -3.61266622629325   -9.62494981449419   -9.03859934563734
H          -1.12183223700225   -9.79911106564375   -3.27455227556828
H          -0.89832631912978  -12.04726138699562   -2.30073663969095
H          -1.32160140714147  -14.05074969251286   -3.65652218974947
H          -1.98675602758281  -13.86102826224151   -6.01259960496560
