140
 SCF done       -227.238420995374          0.000770802933
C           3.80313202009647    5.91047537695725    3.75753243340001
C           4.94639157031481    6.39285949230418    4.37612951311716
C           5.72868841879332    5.57182351051523    5.17630629171105
C           5.39319251498300    4.24145292248027    5.37658000428490
C           4.25185255509075    3.74822767246284    4.76603904421986
C           3.44980460754594    4.58468993306696    3.95586560021774
C           2.31732970071604    3.81650716116969    3.45826094039095
C           1.41081437553955    4.23147329077656    2.52030863220997
C           1.42173207766526    5.50509138713964    1.91400596468438
N           1.36815980029327    6.52347787693198    1.38719488976494
C           0.38244233843182    3.42944102501192    1.98636737602910
N          -0.46035643951966    2.82497605695484    1.49337294461098
C           2.35417709116038    2.52794552917845    4.14219036844306
C           3.67026498950339    2.41586586210793    4.76832880403996
C           4.32000489988137    1.25281272623261    5.07880272112762
C           3.81463395262983   -0.02723546016497    4.77044598456188
N           3.47256334813066   -1.08036126062004    4.46915793420289
C           5.60589589088329    1.20238227454223    5.65416285894375
N           6.63915658898544    1.11338847632432    6.14600374309646
C           1.30038002537139    1.67898962313244    4.29661310130147
C           1.20130093784124    0.68241202707561    5.33891703465897
C           0.66752958131338   -0.60925404966982    5.18235468715475
N           0.31763200222473   -1.28843985752441    4.05174894450890
C           0.31507934147363   -0.72409220346520    2.72819018174803
C          -1.06482755646459   -0.20011035673798    2.33966880317021
C          -0.07866764932118   -2.56783160369909    4.40065706113029
C           0.02145586224910   -2.70782535292208    5.80567096358778
C           0.53514339891644   -1.46669128660404    6.30568870623683
C           0.90779919490122   -1.05793643036898    7.57276805966384
C           1.43792210804049    0.21276113121207    7.72619323998878
C           1.59365679624197    1.04683363820254    6.63522762300809
C          -0.35134443715860   -3.87918942783605    6.44843932543219
C          -0.85139047944484   -4.91242228184253    5.68345954129235
C          -0.95888700862385   -4.77703307318664    4.30535711715811
C          -0.56378443377545   -3.62806699002488    3.62826085898326
C          -0.69546213076643   -3.62292504930837    2.15724149296192
C           0.40735065991127   -3.59420221005719    1.35019605243812
C           0.24964448887699   -3.57428867102192   -0.05897712754432
C           1.16809462384659   -3.48279053105884   -1.09238455354510
C           2.65742405022500   -3.41463737121804   -1.05612772803052
C           3.20071955857088   -2.41818255206528   -0.00117622542716
N           4.51360440793990   -1.89007817132338   -0.29752858886912
C           3.28281367934685   -4.81207901391310   -0.86128868639339
N           2.92907011465602   -5.37172164026968    0.42757389730775
C           0.40569750196726   -3.46555067284344   -2.32276643873523
C           0.79253606159728   -3.33047768387965   -3.60298360147785
C          -0.18734531070916   -3.34439090952441   -4.72619586114259
C          -1.61338245741392   -3.49161261001216   -4.30499717170796
C          -1.98764072979654   -3.59321589182389   -3.01521497165113
C          -1.01875891331975   -3.57636756215659   -1.98580730811271
C          -1.10163304630469   -3.62641792600650   -0.60714514025117
C          -2.21319500545300   -3.70573399722867    0.26079821883604
C          -2.00975866661066   -3.70057883220678    1.60422151556092
C           0.20913614309561   -4.45988335121945   -5.66914435878470
C           0.79645426001365   -4.25861442455504   -6.83956005336642
C           1.17843258202424   -5.32005082733357   -7.78803959025212
C           2.20288574302788   -6.25712990435451   -7.61945110676711
N           3.13137071056148   -6.43166424943247   -6.60804457521749
C           3.23339512739388   -5.65514432670421   -5.40199961984371
C           4.00628447059392   -4.35850921736662   -5.63140992627457
C           3.98458768775540   -7.44221573788340   -6.95490990574487
C           3.58239705628589   -7.98371480532526   -8.20277005842970
C           2.45979064313828   -7.20679984109173   -8.63821190388366
C           1.70437124722755   -7.25402788289355   -9.80006986356009
C           0.70004174767265   -6.32265875546890   -9.96317745210498
C           0.46104382958940   -5.37254867897108   -8.97992420828153
C           4.23238415345867   -9.06698718864005   -8.76551101394813
C           5.29652375844521   -9.62457951736072   -8.07773945139554
C           5.68676623794820   -9.11392399433902   -6.85388472912846
C           5.06081013624580   -8.01257777795538   -6.25273804694389
C           5.61997809093893   -7.51256381949856   -5.01355934624952
C           6.06896871506506   -8.30394007895309   -4.00406274134653
C           7.04075152788625   -7.91265730146633   -2.98568066287557
C           7.27850853868481   -6.64650251626599   -2.51858923050027
C           6.51402143094031   -5.51865271353177   -2.86812005520742
N           5.89505264714976   -4.57173672214955   -3.07162497815928
C           8.26028527888812   -6.32908115262103   -1.55738851254610
N           9.04600968940568   -6.00675966842139   -0.78514363508975
C           7.67583039854174   -9.13738990109997   -2.53113584005041
C           6.97467466956074  -10.24472327053508   -3.06798811643514
C           7.37838563580665  -11.54013761429608   -2.78571255307819
C           8.48568073317481  -11.72491186246961   -1.97326315263385
C           9.17320937991226  -10.63997648791256   -1.44311051435065
C           8.77661130705931   -9.33973992517272   -1.71145306855289
C           5.86495193300630   -9.74602522504186   -3.85780701173107
C           4.73082332300095  -10.43114084077172   -4.20239649837923
C           4.56044606834222  -11.81571685837052   -4.00740027875836
N           4.38795617512196  -12.94361735042728   -3.88137234650359
C           3.57820663313674   -9.78898163193017   -4.69713840868487
N           2.60475597153235   -9.27630899002433   -5.02500225820587
H           3.20484582161565    6.56315741970089    3.14315283168000
H           5.22837875291871    7.42484860975537    4.23328982908610
H           6.61114613447732    5.97253954207322    5.65133833817666
H           6.00502846840597    3.61368635143046    6.00397775378890
H           0.40842721726674    1.86354147771557    3.71283444091833
H           0.63300019547407   -1.48439060726206    2.01391389504699
H           1.05524143084327    0.08191747173791    2.71020878451890
H          -1.76146537944650   -1.02808670467444    2.22973527057712
H          -1.00797808622790    0.33718960783885    1.39815898057893
H          -1.45190763889181    0.47636328321313    3.09892895264493
H           0.79733610092185   -1.71840146685392    8.41850070187787
H           1.73047416243061    0.56362759704965    8.70407067058751
H           1.98119500496668    2.04437815240219    6.79062965375680
H          -0.26079021026046   -3.96851115070159    7.51989569601193
H          -1.16160171766588   -5.83446194890516    6.15147980924219
H          -1.34589140664770   -5.60112057337352    3.72282737409648
H           1.39580188202500   -3.60570644039569    1.78250388723607
H           2.99746851017278   -3.06306009824837   -2.03865559432654
H           3.25987634954341   -2.91336883632953    0.96785907887231
H           2.51367503638714   -1.56980597844161    0.07260972519454
H           5.20542975005646   -2.63100964521362   -0.30195687802472
H           4.52821322769743   -1.44616870377757   -1.21014290892551
H           4.37187852032633   -4.71235791666104   -0.89737670338735
H           2.97947450852204   -5.44649837070406   -1.71483152743619
H           1.93582029536998   -5.57506061263133    0.46037551397236
H           3.43224838416609   -6.23541840611672    0.59343568922195
H           1.83109300430321   -3.21372299309316   -3.88189233065852
H          -0.07727550011998   -2.39734102169868   -5.27611026573677
H          -2.33891581367604   -3.51592106049961   -5.10394923766651
H          -3.03123151809401   -3.68849555256472   -2.75184629070548
H          -3.20972745890950   -3.76141380216353   -0.15216370684796
H          -2.84432420846893   -3.74896341288213    2.28946745004988
H          -0.00742971728092   -5.45908462402899   -5.31528523309595
H           0.94888561107226   -3.24611236103125   -7.19908582892922
H           3.73235866751607   -6.27181177284321   -4.64886663999727
H           2.23018785508843   -5.43235185110653   -5.03648364195977
H           4.23231202134713   -3.88398648160939   -4.68119291372948
H           3.42381173958435   -3.67698128670541   -6.24729364413348
H           4.94554328139583   -4.55842901707430   -6.14337314378378
H           1.91172025579761   -7.99317459541111  -10.55797070061142
H           0.09847651556214   -6.32150751742362  -10.85921922390025
H          -0.32504217277661   -4.64630306472507   -9.12995912202092
H           3.91421209237006   -9.46602817594738   -9.71571305656312
H           5.83551651370214  -10.46054599950043   -8.49642166824199
H           6.54477306649760   -9.54737497680527   -6.35879473979456
H           5.83826784926267   -6.45365701271059   -4.96328497921981
H           6.85484114878039  -12.38758670324377   -3.19811116837775
H           8.81917163755293  -12.72718162946500   -1.75218529018133
H          10.03236285941666  -10.81045304568534   -0.81262994147647
H           9.32232640614737   -8.50902574086891   -1.29469194715972
