125
 SCF done       -251.121451359616          0.004426336058
C         -11.68750325629155   -4.74273318317223    4.15975522422190
C         -11.42909847539625   -5.43645521898249    5.33183614910598
C         -10.41089360748456   -6.37901170505207    5.39728626995177
C          -9.62743073232967   -6.66271380995961    4.28988923398679
C          -9.86624721296498   -5.96803536083842    3.11572880478645
C         -10.89804388819061   -5.00216222203878    3.04977563738743
C         -10.89938389550037   -4.40499805891737    1.72669584782537
C         -11.84649692288634   -3.59195259336404    1.18002747452722
C         -13.00946213324148   -3.16895678230441    1.85971224904101
N         -13.96977830600576   -2.79443751959676    2.36284363464644
C         -11.79840815515874   -3.12841881672652   -0.15413104330547
N         -11.81222949601593   -2.74803567959326   -1.23649140145580
C          -9.65931154173972   -4.85461671461778    1.07993727894423
C          -9.19877449115395   -6.03114669749601    1.82686051322134
C          -8.42737103233384   -7.05201673265311    1.36020755606426
C          -8.00065149744422   -7.16864375996233    0.02345391568642
N          -7.68471087643395   -7.32478982167593   -1.06846265012347
C          -8.04345464681862   -8.15960813037899    2.14898346427512
N          -7.71522605586515   -9.08460744276150    2.74217426379344
C          -8.95489287431079   -4.08747232750284    0.22989558308312
C          -7.56735953268752   -4.29250489674368   -0.19173372992494
C          -6.49049378944602   -4.15405551287626    0.70391133488207
C          -6.71815590410779   -3.65076519817739    2.07369978187373
O          -7.80561629143690   -3.32470861286554    2.50404276226431
C          -5.52105065593123   -3.47149179848522    2.95057491395957
C          -4.63196838893676   -2.44773074087339    2.92175285344835
S          -3.52044226830273   -2.51709266473516    4.23950834705313
C          -4.27456308779515   -3.92399389218621    4.85556678519233
C          -5.32918591306585   -4.32322207137853    4.08261647126204
C          -6.13985326551005   -5.54347148004173    4.20116944532346
O          -6.62514663935988   -6.03388015671009    3.19249041411359
C          -6.33189268164657   -6.14016735707309    5.53732844423410
C          -6.42770622856511   -5.35224580689552    6.68278370328538
C          -6.66084887732217   -5.94657587210168    7.90991220014242
C          -6.79053867714931   -7.32327075047660    8.00563417689738
C          -6.70376562279796   -8.11043396720301    6.86827852159112
C          -6.48615776627036   -7.52311226457019    5.63566782174443
C          -5.19884725682428   -4.42886711073745    0.25267675762038
C          -4.96121570963462   -4.78964446981134   -1.05476227725094
C          -6.01820793868744   -4.84029551893819   -1.96525307985754
C          -7.31220215114433   -4.58872978249145   -1.52286159263045
C          -5.78509073951843   -5.22988146287892   -3.34712249433622
S          -6.82248141734483   -6.39226835910233   -4.08211118852398
C          -5.89372398373680   -6.39404113211016   -5.53124618481915
C          -4.82498328471765   -5.53949987849400   -5.44521113841939
C          -4.77879197205042   -4.84605234186259   -4.20241481249746
C          -3.85203683233237   -3.70522163991920   -3.91075711890859
F          -2.68766451555382   -4.07338642113057   -3.34932916089940
F          -3.54380878550608   -3.00138113752799   -5.00465785865292
F          -4.40143931412291   -2.82029030803941   -3.05663087365867
C          -3.80552653492856   -5.37789282371588   -6.53183848526008
F          -3.69763766646960   -6.47490059567533   -7.29943834936271
F          -4.08205991807087   -4.36428421793999   -7.36292851798348
F          -2.57440314505286   -5.16504302015216   -6.04426480300287
C          -6.30738973922156   -7.25798628910018   -6.64560545115916
C          -5.69366963126053   -8.50162861661184   -6.83653738730115
C          -4.61480157740909   -8.90771411130221   -5.89257719609759
O          -4.72832590857228   -8.70836340299033   -4.69771472708669
C          -3.42269266267912   -9.51536334689429   -6.47409547542630
C          -3.06995630770973   -9.52339833886813   -7.80065302664290
S          -1.57523863711062  -10.29429361811686   -8.06718945609116
C          -1.40117245496406  -10.63279629241356   -6.38066421519117
C          -2.43353981395455  -10.14647272199853   -5.65233038776332
C          -2.58924466302142  -10.25111282718752   -4.16454054053939
O          -2.93578997087614  -11.28322433475393   -3.63995784315444
C          -2.28786365559721   -9.00930077277907   -3.42033125750297
C          -2.72142155537318   -8.90527018149817   -2.09937352312124
C          -2.46775864653975   -7.75862554996068   -1.37292466500978
C          -1.76302088938186   -6.71491615787061   -1.95279662590036
C          -1.32760254666953   -6.81145696990289   -3.26548986276848
C          -1.59523273230007   -7.94868645903865   -4.00234910751840
C          -6.15432773023190   -9.34552355246496   -7.84000468568579
C          -7.17422369375654   -8.94418841864094   -8.67647652611224
C          -7.75419981062301   -7.68111328430212   -8.53195029385740
C          -7.33423115970971   -6.86010289139448   -7.48450400546349
C          -8.84012270917323   -7.23592083307237   -9.38303424936854
C          -9.00637875799497   -7.47764555515238  -10.70155069083161
C         -10.27381062391173   -7.30166228490737  -11.42370397257029
C         -11.31471898986225   -6.49486100616691  -11.06782554866103
C         -11.32561499506723   -5.63492978911905   -9.94629015051948
N         -11.39470242470836   -4.91139571844610   -9.05858043553134
C         -12.51183636334317   -6.37828280190612  -11.80972937380323
N         -13.50447252569278   -6.24244883115894  -12.36804013425300
C         -10.19785927432319   -8.15044081093039  -12.60219567520186
C          -8.88264466988162   -8.65826339456461  -12.72032864038367
C          -8.54728747979821   -9.51450095647741  -13.75746523646307
C          -9.52851385643239   -9.85989560537180  -14.67350217621577
C         -10.81846642716431   -9.35728660018469  -14.56292952316622
C         -11.16683836579675   -8.49960259994359  -13.53119156336046
C          -8.07605397900119   -8.11351801581101  -11.64161560681851
C          -6.71514542463548   -8.01782265027896  -11.62501643830071
C          -5.87624681688843   -8.60536248070532  -12.59760113263936
N          -5.15069316827297   -9.08065216252957  -13.34802145324418
C          -5.97800693759173   -7.26122525988473  -10.68699805447226
N          -5.32354604768012   -6.62523564352341   -9.99244813693392
H         -12.47515475468228   -4.00701417560778    4.12397466627593
H         -12.02557369673205   -5.23470204004441    6.20839613466063
H         -10.22104151811594   -6.89816873889439    6.32492066447317
H          -8.83539436817223   -7.38955638456677    4.35308353430896
H          -9.42195617785505   -3.19491869958024   -0.16929979406473
H          -4.56345899395007   -1.65158911839330    2.20725764246648
H          -3.88165780266586   -4.40248022661385    5.72961873288122
H          -6.35175529592842   -4.27800301174701    6.60662950350298
H          -6.74436854531610   -5.33392866399238    8.79596126692769
H          -6.96678100282465   -7.78210649321370    8.96619533933386
H          -6.81285642218050   -9.18216675780648    6.93921835407054
H          -6.42031253845617   -8.12283501661156    4.73933592831546
H          -4.37288319485272   -4.36377563958451    0.94418560511408
H          -3.96313155347158   -5.04059843539479   -1.37670758005138
H          -8.13616014703639   -4.65605032713812   -2.21807704640608
H          -3.59409372827201   -9.07106580303184   -8.61929064152721
H          -0.53353951704168  -11.15509366782836   -6.03039232492962
H          -3.26713704525600   -9.73088727450201   -1.66874463451662
H          -2.81688621077317   -7.67899372254300   -0.35341642541199
H          -1.54606631704467   -5.82105890585466   -1.38604490355652
H          -0.78837511632287   -5.99275446752674   -3.71604920822292
H          -1.25422674119232   -8.01554087398376   -5.02522085694293
H          -5.72694212533665  -10.33117659099705   -7.94457310464776
H          -7.54624888013902   -9.62285093065937   -9.43041294908133
H          -7.79585010568020   -5.89399887039820   -7.34559020562074
H          -9.62129465284382   -6.69605028390570   -8.86423406822647
H          -7.55144111601360   -9.91695496696651  -13.84874931306571
H          -9.28460294258254  -10.53140051331143  -15.48217062197921
H         -11.56520872427202   -9.64083546482059  -15.28849920151390
H         -12.17419128777296   -8.12427695255295  -13.45630111376809
