126
 SCF done       -237.436043526690          0.007724575430
C           1.86189028731299   -4.51331584844534    2.88690047172563
C           2.51479528096807   -3.98524533724014    1.78279419494989
C           1.80585991694219   -3.51322503384460    0.68599151690725
C           0.42119444533136   -3.56589812273108    0.65610282223281
C          -0.24396982863531   -4.11200377538609    1.74239445297420
C           0.47787543250542   -4.57661458688766    2.86861941436865
C          -0.46849861357137   -5.04451263406538    3.86865927968946
C          -0.23341528465426   -5.27449522859653    5.19015807169976
C           1.04592837366243   -5.19571550031954    5.78354499282299
N           2.06571525478198   -5.14927579633581    6.30556886609321
C          -1.25757795919010   -5.49803538679940    6.14023346994307
N          -2.04980633313519   -5.61032131563772    6.96129277001611
C          -1.76927769201113   -5.13124082951919    3.19276290670891
C          -1.66297630663634   -4.28787966122484    1.99529150982640
C          -2.69140299628229   -3.64131654828428    1.36864428953623
C          -4.01514963215471   -3.65665816268745    1.85846944729959
N          -5.08671078311698   -3.58366111370969    2.26289024040541
C          -2.54762952104259   -2.87584986770901    0.19480322736124
N          -2.49777859738680   -2.28640737997275   -0.78903778254010
C          -2.72706003126400   -6.02300950997397    3.52804595332773
C          -3.87623830874453   -6.38258805129969    2.71673135384105
C          -5.11558991966836   -6.66116532952676    3.31315348925536
C          -5.27697350353718   -6.73020255335624    4.79627045727536
O          -4.55424622771213   -7.41709201245080    5.48889462633195
C          -6.38735396958487   -5.94719283378562    5.33821251518342
C          -6.96134859939897   -4.85384994198740    4.74126923422600
S          -8.19274979610378   -4.16956152766831    5.70225843624530
C          -7.96368784136354   -5.37125779707355    6.92460193057436
C          -6.96758710743156   -6.23421103780628    6.61440977735964
C          -6.56179499435756   -7.43721736755021    7.41281452211411
O          -7.12544713099546   -8.49526352326361    7.24256375657996
C          -5.47013360621907   -7.23393057940629    8.38158039748690
C          -5.02804899898272   -8.33169835509831    9.12070727439634
C          -4.00173330593013   -8.18827540640535   10.03192170331296
C          -3.40718603936362   -6.94886718577447   10.21353059196911
C          -3.84062175611941   -5.85411833389146    9.48314520359078
C          -4.86674965125414   -5.99149892621317    8.56896231958044
C          -6.21604454875327   -6.92275813843044    2.50246096978404
C          -6.11828981772992   -6.88960532443291    1.12817040289054
C          -4.88756329090568   -6.62577884967860    0.51508940571693
C          -3.77690715303333   -6.42392300344297    1.33044341837305
C          -4.76658023374464   -6.45938255646017   -0.91296021188430
S          -3.20467631128999   -6.06243866535040   -1.60850362663381
C          -3.90735152883608   -5.84945136313551   -3.14264446042590
C          -5.28108011650225   -6.07421597333594   -3.12741886777118
C          -5.76307400604340   -6.42701578327200   -1.86515956136569
C          -5.84411307255319   -5.77872072342859   -4.47586845349253
O          -6.98525775625625   -5.87778582435936   -4.85281297704030
C          -4.65192942177353   -5.32887099340623   -5.24642408095633
C          -3.51593009657778   -5.41247579116333   -4.44499042631041
S          -2.10580831963486   -4.89864064295848   -5.25284870667724
C          -3.04343161736714   -4.50174291471710   -6.67102805713268
C          -4.37814777656861   -4.81428393084143   -6.51450760532359
C          -2.41768611477666   -3.90780071321179   -7.83608264710766
C          -1.27823357053824   -3.08972229387309   -7.75292307005969
C          -0.67720093179064   -2.63113468430093   -6.46314822594256
O           0.49722662119540   -2.79123501220403   -6.20820209542851
C          -1.56564509630780   -1.90345347614993   -5.54516221302426
C          -2.87850736021615   -1.56236520910863   -5.74308711356618
S          -3.54681467565395   -0.74547350924865   -4.40327655641066
C          -2.04154295823483   -0.81127704753731   -3.56302471667001
C          -1.08540799264443   -1.45004217852182   -4.27381620483418
C           0.34634249258418   -1.59402896994646   -3.86041183489329
O           1.10689046643091   -0.65877518670475   -3.92518845327774
C           0.74395926541549   -2.92481789336744   -3.34612379934901
C          -0.18642952330857   -3.82618162688844   -2.83478976251180
C           0.23817457437865   -5.04889864271290   -2.34469498188637
C           1.58313101465193   -5.38204742072371   -2.36658601365474
C           2.51286563541647   -4.48623294285511   -2.87338758614310
C           2.09692232170257   -3.26063844123199   -3.35639747136342
C          -0.68344063090234   -2.62446155991929   -8.92079321410125
C          -1.22512896045026   -2.90158188660087  -10.15844064046306
C          -2.37381185733706   -3.69124044152612  -10.25839515326059
C          -2.95655993208822   -4.17659343881158   -9.09109196743178
C          -2.96942841196225   -3.94500964398555  -11.55592618177878
C          -3.63558143174470   -5.05324609264264  -11.94940845464331
C          -4.53178324120649   -5.12011736221509  -13.11071096942640
C          -4.50103024265346   -4.32174471438400  -14.21652074767031
C          -3.54079204678836   -3.31269586896860  -14.45260128225773
N          -2.78511170453186   -2.48783262282557  -14.70858636391532
C          -5.40181334727913   -4.43780891831333  -15.29880993575298
N          -6.10364442173893   -4.48399250074078  -16.20461469185924
C          -5.45454368340397   -6.21556989346612  -12.85554214645140
C          -5.02093017657631   -6.92646820110529  -11.71159422226574
C          -5.73960136197578   -8.01361373378035  -11.23998415628574
C          -6.89047150129745   -8.38788497349828  -11.91582752033964
C          -7.31384317666451   -7.69659435801605  -13.04355793522251
C          -6.60414957479052   -6.60750410932758  -13.52528886176728
C          -3.78594936299091   -6.32763010695866  -11.23671002364885
C          -2.83999045461502   -6.93178416097856  -10.46092613713487
C          -3.02314405767750   -8.18007149960706   -9.82839024847410
N          -3.13296915700565   -9.17731881371959   -9.27305220091622
C          -1.54318826283351   -6.41055220749340  -10.25483275535010
N          -0.45918045102659   -6.06630800960554  -10.10051886227088
H           2.42398595169927   -4.87206940156854    3.73383647421595
H           3.59268974487832   -3.93797380185947    1.78020761643319
H           2.33454354576742   -3.10204799216218   -0.15972815403198
H          -0.11578613208799   -3.20205042682510   -0.20402823246196
H          -2.63002134646895   -6.55945645922035    4.46281060593887
H          -6.69084991670937   -4.39936215171164    3.80760476780617
H          -8.58128381727616   -5.35965081280948    7.80027374694755
H          -5.50334438520248   -9.28741133734292    8.95697513177498
H          -3.65968032757692   -9.04086659491436   10.60013063736884
H          -2.60065465386451   -6.83665471287011   10.92326574312183
H          -3.36954157696056   -4.89274234140025    9.61991432135937
H          -5.19435615022685   -5.13714313405108    7.99548696187529
H          -7.16372579037290   -7.15421154910776    2.96495584479367
H          -6.99525111227534   -7.06753322158880    0.52758529937794
H          -2.80802104228145   -6.28857392700926    0.87001187760376
H          -6.79886968239001   -6.62505389823500   -1.65914848292917
H          -5.12924818522125   -4.63371165143568   -7.25948603876127
H          -3.48575798306371   -1.74262213543866   -6.60866401074123
H          -1.96353220497740   -0.39185293798876   -2.58247058012380
H          -1.23265858798170   -3.55719812721091   -2.79087087253671
H          -0.48329207088467   -5.74659255326181   -1.94252710954624
H           1.90659930597648   -6.34064834138422   -1.98700356456953
H           3.56093558300687   -4.74767242541831   -2.89060001138680
H           2.80001108378260   -2.54783177313626   -3.76048349710080
H           0.20689507384335   -2.01979804150693   -8.83952378967861
H          -0.75205467437266   -2.53365877272736  -11.05516261152337
H          -3.85646393014118   -4.77016907153793   -9.15182687668458
H          -2.91830896416818   -3.11106314584695  -12.24377398017336
H          -5.42376324995437   -8.55133012377821  -10.36053714106547
H          -7.46540179462552   -9.22756731998978  -11.55696599990418
H          -8.21285566711955   -8.00772821954429  -13.55299983237613
H          -6.95137334452500   -6.07782034718295  -14.39716569094405
