133
 SCF done       -227.955600060199          0.000723303708
C           0.23639010337574    2.52580769792207   -1.29138528873835
C          -0.46717861845627    3.33654868415670   -2.16874717414089
C          -1.72391317438657    2.97091172454826   -2.63180412636041
C          -2.31665544555169    1.78510989297481   -2.22602572073372
C          -1.62315463398250    0.96524685507750   -1.35043698170665
C          -0.34006807557004    1.33288459383628   -0.88239441969857
C           0.15818091378300    0.28899224030706    0.00106484712867
C           1.27860860421967    0.35403343481451    0.78109936701198
C           2.14486155698587    1.46786649896743    0.82823169949220
N           2.88570264455471    2.33999210625612    0.91328652618123
C           1.69797130730946   -0.64942198871285    1.68125783519084
N           2.09110667427162   -1.41975882024318    2.43628673347076
C          -0.78180626414072   -0.82846915709099   -0.10280953195181
C          -1.98903380102132   -0.30373876132351   -0.74282365617574
C          -3.25871623977023   -0.78258784774322   -0.58130237750099
C          -3.59226771282786   -1.86886790537959    0.25700253831871
N          -3.92917708216238   -2.69537430656246    0.97798376981182
C          -4.39776500591807   -0.18650512387200   -1.16275456922425
N          -5.34730275821819    0.25323977648095   -1.63306327575605
C          -0.49009768758882   -2.11413884023996    0.21566453294959
C          -1.20279467175940   -3.30255777995310   -0.18126378624274
C          -1.22012099786749   -4.39847685307976    0.69482875833027
C          -1.88338853011287   -5.54578110887974    0.33414094812831
C          -2.54039303971486   -5.61479056072936   -0.90802800609521
C          -2.48863807907186   -4.55356690499296   -1.80260708121947
C          -1.82009393566094   -3.40656108897775   -1.43557615285688
C          -3.18077039879519   -6.90426553370749   -1.02130609774418
C          -2.91985648555701   -7.63803679552900    0.14932249746384
C          -2.09769185934744   -6.82020985348007    1.12465792284295
C          -0.79126982058660   -7.59120652425059    1.40778764119159
C           0.20216392658528   -6.91959489385193    2.34719079134453
C          -2.89519196499418   -6.44241426890760    2.39188649864555
C          -3.31880284628508   -7.60587005918220    3.27809986079349
C          -3.34066103641004   -8.94251047762040    0.25159926864789
C          -4.07478461146362   -9.51728835713904   -0.79433781059966
C          -4.36534672932570   -8.75916664801127   -1.93467083348856
C          -3.91582436934795   -7.46130514531504   -2.05841934314760
C          -4.48287706806516  -10.91266230444367   -0.71087871299986
C          -5.70042115615754  -11.38149124750846   -1.23751921586376
C          -6.03533139747730  -12.78852721462212   -1.26868912796952
N          -7.23243683429945  -13.17501940349656   -1.75033081854562
C          -8.06349312662634  -12.28067882038036   -2.21048469489249
C          -7.72640411550538  -10.88164177057316   -2.18800286622785
N          -6.58584369446503  -10.47769375335184   -1.70023928297216
C          -8.64882929872565   -9.92544656363590   -2.68272412193196
N          -9.41417420342025   -9.18612079507989   -3.10643862444174
C          -9.31910396891448  -12.69696103485741   -2.72031082767703
N         -10.33482244114242  -12.99618898257406   -3.15701627863879
C          -5.16059955085070  -13.77803389486940   -0.78240676427985
C          -3.98659215919947  -13.30172148834501   -0.17485536490442
C          -3.65494587310268  -11.89187348102606   -0.13642969828583
N          -2.46520719892239  -11.68566829001455    0.44316099339675
S          -1.84378212904265  -13.09034916124560    0.88617092053246
N          -3.01937994783874  -14.04612634896196    0.37655987155133
C          -5.42540042966857  -15.20169403075355   -0.93022231186573
C          -5.02460700724643  -16.09627771558620    0.07156620197504
C          -5.24507269034477  -17.44045205457867   -0.09940717179965
C          -5.86531629868634  -17.92294386781923   -1.26539116327926
C          -6.26950605977521  -17.04391624434462   -2.25983562496665
C          -6.04462626517510  -15.69365291188430   -2.08613618106319
C          -5.93822545673052  -19.36443707300993   -1.18288559382940
C          -5.36052040310199  -19.77294886018483    0.03312906467086
C          -4.89184895914915  -18.57820800347139    0.82792667326701
C          -3.37647646799196  -18.63244308522978    1.09749987734826
C          -2.54975565022299  -18.71752669685233   -0.17989678702943
C          -5.65123797537286  -18.46721715935016    2.16449873508279
C          -7.16300406973424  -18.39848118331711    1.98746127695572
C          -5.27269530675711  -21.10533967485790    0.34911790325180
C          -5.81239215006774  -22.05753860967577   -0.52957672329107
C          -6.37084035648672  -21.63769312298571   -1.74572413872890
C          -6.42933116465800  -20.30225673876770   -2.08152203438632
C          -5.70780056475810  -23.45405601452273   -0.18870035691201
C          -6.56875663374378  -24.45292198737277   -0.50834097593904
C          -6.23920139295643  -25.87912061166742   -0.47828919568559
C          -5.22973681414277  -26.47853742120510    0.22161300182631
C          -4.34370417611475  -25.81474177901674    1.09759523134840
N          -3.59828089049249  -25.34030113844203    1.83051582694022
C          -4.96860971345198  -27.86593046532265    0.19963178464654
N          -4.70386141122375  -28.98212377358960    0.22369648580128
C          -7.20704699296484  -26.54714834297841   -1.33635121778178
C          -8.20114421409786  -25.61690419948991   -1.71907540526457
C          -9.24006278687339  -25.99610793538143   -2.55374127732244
C          -9.28158591183638  -27.30648092408144   -3.00434732323604
C          -8.31019496820388  -28.22305003198984   -2.62519255616469
C          -7.26633540856387  -27.85624285274666   -1.78970687649749
C          -7.91206420156575  -24.34463574262410   -1.07885970767023
C          -8.81225145527236  -23.34527466446477   -0.83603271626203
C         -10.12427251118093  -23.32973065785813   -1.35465979059853
N         -11.19277719027772  -23.26265661440849   -1.76718064678597
C          -8.56999051742548  -22.26223561709391    0.03518345626544
N          -8.45814581475684  -21.40477386028002    0.78931493755174
H           1.21350897722422    2.82195099068400   -0.94658229889998
H          -0.02638727514558    4.26490789911467   -2.49824415369254
H          -2.24828968121186    3.61651883633272   -3.31948390584010
H          -3.28976750061271    1.50744459719557   -2.59772619493848
H           0.41024834640972   -2.29690560542878    0.78792743856920
H          -0.75052658676359   -4.29452298744008    1.66026786557675
H          -2.96620843347808   -4.62298108393099   -2.76809040608477
H          -1.74372613016996   -2.58433908503231   -2.13325685211981
H          -0.30220526971172   -7.77102270620588    0.44633608051495
H          -1.06194943457146   -8.56585879239744    1.81627883517464
H           0.60951593260413   -6.01376240337090    1.90808406581610
H           1.03107841203594   -7.59902268852901    2.53538601245951
H          -0.25466503996624   -6.67534695413625    3.30211121093419
H          -3.78618053537486   -5.89853391793727    2.06895956547139
H          -2.29078081087344   -5.74747604475456    2.97626123034511
H          -4.02134273146180   -8.25386831649340    2.76166805856380
H          -3.81264623581648   -7.21660901207073    4.16591475020982
H          -2.46333726966691   -8.19461161179008    3.59918279653432
H          -3.11774375950581   -9.53786816568439    1.12106250503135
H          -4.91461370900977   -9.21108991497258   -2.74493786035316
H          -4.11944988219825   -6.89727805301454   -2.95583424686209
H          -4.55775920767104  -15.71937866391088    0.96711275305081
H          -6.74146824107802  -17.40562138825222   -3.16062393066220
H          -6.32717297264487  -15.00559689634886   -2.86663406599478
H          -3.16416742885577  -19.49877662300466    1.72697262906770
H          -3.09000441590002  -17.73655622929135    1.65140210009367
H          -2.81294111077183  -19.60461981478647   -0.75217946612882
H          -1.49116003730118  -18.76795892220970    0.06368647783649
H          -2.71771547141019  -17.84261651967384   -0.80391401542908
H          -5.30243794346651  -17.57163353664078    2.68363405575553
H          -5.39795822438599  -19.33182498182602    2.78105046269995
H          -7.44186583311793  -17.54194098396995    1.37726858148420
H          -7.64393478018693  -18.29893769699184    2.95758750710077
H          -7.53979631968539  -19.29977562537988    1.51165066717272
H          -4.83149077242424  -21.43493594681133    1.27797289570745
H          -6.72242230412619  -22.37991828124875   -2.44871921174193
H          -6.84766246716045  -19.99488306615083   -3.02788812796269
H          -4.79881095716614  -23.72341315979660    0.33351882794986
H          -9.99531573148491  -25.29041542937486   -2.86000028066779
H         -10.08059518684750  -27.61550513940022   -3.66065623947797
H          -8.36392038477420  -29.23804641414212   -2.98794396249102
H          -6.51803700270037  -28.57961133913443   -1.51040802378294
