104
 SCF done       -194.453116863754          0.000983764965
C          -6.87978729649000   -4.26729022433040   12.42353539230796
C          -7.48971338876918   -4.97461517989348   13.44897514373128
C          -8.52820840485131   -5.85723745499718   13.19064849870896
C          -8.99119702725537   -6.05423940288394   11.89837227021082
C          -8.38875407073217   -5.35486774216900   10.86669229256946
C          -7.32713940506551   -4.45985540760858   11.12647189041955
C          -6.87206557219567   -3.88871122227017    9.86655803369633
C          -5.93702821852182   -2.89813753242857    9.72846463419993
C          -5.28102569019258   -2.27227487325497   10.81064684171960
N          -4.71571536221062   -1.70977422960629   11.63598356726318
C          -5.52075572455078   -2.31794678087623    8.51163391838168
N          -5.13614256155058   -1.79241265385963    7.56546249297824
C          -7.60062187779700   -4.57624494013958    8.80627481800550
C          -8.66515983899065   -5.33992081117583    9.43943987533560
C          -9.82237415516714   -5.77972227064250    8.84918183573611
C         -10.22743239690850   -5.45769809051133    7.53964676830212
N         -10.64935174370432   -5.18072192751506    6.50768296593437
C         -10.81124669917551   -6.53483947978336    9.51182440178978
N         -11.63786435890497   -7.18548921737551    9.97154434974798
C          -7.23787580453759   -4.54588982112609    7.48523107518455
C          -7.63855337717441   -5.38429060249457    6.42535445104329
S          -7.73159732181309   -4.66440324664850    4.84701220187485
C          -8.48223037039367   -6.05110742748714    4.14499778225527
C          -8.52496281142725   -7.11465973803688    5.07600078828983
C          -8.02950091706267   -6.73494473780797    6.36172285908664
C          -7.90142968588360   -7.73043899276260    7.36349551397967
C          -7.20487048447607   -7.50810112104522    8.56953719448723
N          -6.59788173474099   -7.40655592712424    9.53848841879178
C          -8.35885085074845   -9.01321262944303    7.11594777182409
C          -8.88206359089526   -9.35709153324716    5.86893980572714
C          -8.93146194647152   -8.43832394860987    4.84952299512354
C          -8.98630381705295   -5.91677305333214    2.83611548330020
C          -9.92431782919301   -6.68997959861720    2.22296956846214
C         -10.42492613491593   -6.42911067452998    0.93412248586765
S          -9.83017396309548   -5.06287473669228   -0.06282610635841
C         -10.97811426447465   -5.51798904924995   -1.24489347829097
C         -11.70361688151253   -6.64741979723199   -0.81848465017254
N         -11.38043580998528   -7.12575140961529    0.36856894062852
C         -12.72643096532469   -7.03672658890991   -1.83710443417452
C         -12.51265164569107   -5.97900435505999   -2.87920879027078
C         -11.47098544527485   -5.11516830206799   -2.49797510141290
S         -11.18891435262955   -3.86924175848587   -3.63909758742871
C         -12.49387097082587   -4.48727822957437   -4.64157437305546
C         -13.08479621808358   -5.62195495682761   -4.08471950901863
C         -12.88169622687541   -3.84070775274899   -5.82811878852599
C         -12.27844156295154   -2.72315766215346   -6.32908093088956
C         -12.71487153782389   -2.02527991705608   -7.46580470709821
S         -14.14777623027002   -2.49826039438365   -8.32095419116865
C         -14.04548684390947   -1.16717038197884   -9.42957682647846
C         -12.90483472187285   -0.37760559201851   -9.15007104776168
C         -12.15175987993987   -0.86449491710928   -8.04397059953728
C         -10.97984598724557   -0.16565235412549   -7.66115538413582
C         -10.14030413102135   -0.57596632493556   -6.60212033353572
N          -9.40744996667618   -0.85530450944420   -5.76447432159715
C         -10.60761818959085    0.97339092619915   -8.35421629458756
C         -11.36739880502714    1.44431856461535   -9.42766820148962
C         -12.49974060800116    0.78178622911122   -9.82862127781721
C         -15.03504752526377   -0.91759744874586  -10.37928586041620
C         -16.13270324440421   -1.71375869626690  -10.59641037434971
C         -17.17059855534017   -1.45124681508805  -11.50087422995469
C         -17.54300184745841   -0.24722009598987  -12.06379351038626
C         -18.29224202285420   -0.12843370714114  -13.30412807814650
C         -18.96314862039008   -1.11780025272436  -13.97801185953158
C         -19.08560227854609   -2.46352760523345  -13.57567749323628
N         -19.23563856361935   -3.57505872887273  -13.32669314960401
C         -19.67202296882187   -0.91402194233814  -15.18052602690143
N         -20.26924196285442   -0.82618259034952  -16.15759757322824
C         -18.18896413757112    1.26235822506462  -13.73252021747218
C         -17.52044240647465    1.99752556786381  -12.72891565753288
C         -17.26311231692380    3.34787386011192  -12.89530040169095
C         -17.68064249928738    3.96282254866499  -14.06642437716337
C         -18.34772813728107    3.24560113468857  -15.04818303728131
C         -18.60837294455636    1.89171051089400  -14.89334848109966
C         -17.23656684248237    1.10083841907568  -11.61658044633529
C         -16.99229965468599    1.51100542989369  -10.32857469318239
C         -16.76220373770896    2.85011697706036   -9.95707462198682
N         -16.52853743005722    3.91414588061001   -9.59310613980799
C         -16.99411501525855    0.66909158009912   -9.19923663389761
N         -17.01953448892650    0.05757948724608   -8.22745091254622
H          -6.06970287152033   -3.59168616245742   12.64298261954862
H          -7.14435781808939   -4.83782069812589   14.46238953054792
H          -8.98127102478388   -6.40322093380141   14.00404465209603
H          -9.79124246873735   -6.75111300496273   11.70896426672698
H          -6.55856383967892   -3.75771357794879    7.18546607184341
H          -8.26908699364038   -9.76087224912297    7.88993937081880
H          -9.20927243739181  -10.37083473555774    5.69869481225009
H          -9.24803829987682   -8.74369387389619    3.86666799796276
H          -8.63028320816992   -5.04371715687712    2.30042448699880
H         -10.39633225581825   -7.51897998055214    2.72596609581616
H         -13.73611342971070   -7.01470656277959   -1.42329941504134
H         -12.54952226559624   -8.04218139511513   -2.22382264944977
H         -13.90098753960878   -6.13562476188194   -4.55986126279082
H         -13.73084549975855   -4.26512508146665   -6.34937365526333
H         -11.41790575140497   -2.32538728615679   -5.81042759615767
H          -9.71432940006009    1.50113591512711   -8.05525808518204
H         -11.05192853002216    2.33803481607590   -9.94314822628293
H         -13.07686352781322    1.14892265160556  -10.66280541428893
H         -14.90322638445694   -0.03242702594452  -10.98769088794491
H         -16.17292861931320   -2.66467442221514  -10.08058619082601
H         -17.71557628898136   -2.32487770704651  -11.83258429108642
H         -16.74064723292955    3.91542922441553  -12.14245413587838
H         -17.48156174877956    5.01350899671395  -14.21235558145663
H         -18.66778624619815    3.74442958423834  -15.95016790304046
H         -19.12417344211658    1.35164945287983  -15.66971122836018
