110
 SCF done       -195.080463632528          0.000652951015
C         -14.71436657986159   -4.79668340858700    5.14033443998402
C         -15.00506942239486   -5.95579043109658    5.84549011398762
C         -14.08786811995942   -6.99230116190580    5.92694858116378
C         -12.84862044610269   -6.89640272287803    5.31042958568691
C         -12.54946056929781   -5.74591805160345    4.60132055997494
C         -13.48509071093212   -4.69175736744738    4.51008777647993
C         -12.91376815301992   -3.62601612825441    3.69308049420592
C         -13.50669725030857   -2.41610127055627    3.43723372132844
C         -14.75959020421591   -2.02375026419453    3.95283260620583
N         -15.77140792091508   -1.63597616259526    4.33299414733311
C         -12.96351222658703   -1.37536778037263    2.65586087860283
N         -12.59892040997742   -0.48059925090640    2.03439766145872
C         -11.63508413996702   -4.11287132578885    3.19986203376460
C         -11.33972291779136   -5.34457672110234    3.89541431611825
C         -10.09678853871570   -5.91032645490353    4.06914734776298
C          -8.88822351706006   -5.28898428992352    3.70128320462508
N          -7.87431394387649   -4.80498988666821    3.46403203447054
C          -9.87048015846252   -7.13504177628055    4.72378327976474
N          -9.62533371206133   -8.15420598534277    5.19435372048477
C         -10.92041516368515   -3.51712277282893    2.17934159107501
C          -9.96379594770958   -4.09636251386348    1.34420163560765
S          -8.95564484205410   -3.06162472570538    0.32958605342081
C          -9.63317219167026   -5.41633699734097    1.06511958028141
N         -10.02766445432248   -6.66469461122588    1.49086231336989
C          -9.24604505986046   -7.62608627310813    0.72127026785597
O          -8.35368987593391   -6.89640079664315   -0.10518937517095
C          -8.60365434787022   -5.57146697597329    0.12578970536345
C          -8.08917589760067   -4.40537627467016   -0.38746937162627
C          -7.01913829028725   -4.21498679082302   -1.32150440816561
C          -6.33429242235280   -5.30317650133601   -1.81620198054288
C          -5.24769752961151   -5.10401415448417   -2.68882394284289
C          -4.38352210336659   -6.01138265741274   -3.28756965146143
C          -4.46459935542588   -7.49597322026320   -3.17406263921436
C          -5.06521650525303   -8.14870733521108   -4.43822338132976
N          -4.28928475885094   -7.84340395493545   -5.63257367699705
C          -3.12433611668697   -8.16631951904929   -2.82807437398769
N          -3.38376297388231   -9.45866977241996   -2.21343403775961
C          -3.42576013203805   -5.23261638788557   -4.03800098680901
C          -2.35660636717474   -5.59849090816122   -4.76845263907466
C          -1.49874971142571   -4.59159655759952   -5.46041899342473
C          -1.93270778937375   -3.17359220929812   -5.28672241882019
C          -2.98916205921671   -2.82267547457416   -4.53206087930618
C          -3.76758277955924   -3.81092514912436   -3.88032668378164
C          -4.87167337958692   -3.74370043791271   -3.05817495479702
C          -5.61814363379769   -2.65122958543159   -2.55353219203133
C          -6.65460680845664   -2.88392043206184   -1.71316415904065
C          -1.38393217812417   -5.03503913415333   -6.89640254190252
C          -1.88673909319166   -4.37517538627355   -7.94281311905896
C          -1.78125779907279   -4.85063565602354   -9.28954533017565
S          -2.10064196655711   -3.79284769588434  -10.64538528182698
C          -1.43033664282883   -6.08998416997038   -9.76377894896639
N          -1.03113515860912   -7.31304169048938   -9.22742849679045
C          -0.83924101519976   -8.19352198904394  -10.37485988504646
O          -1.04703037633573   -7.43052841516535  -11.56307352555565
C          -1.42142371786722   -6.19435674544589  -11.16628995566385
C          -1.77861481067830   -5.04420640963260  -11.84488457805770
C          -1.84246845568703   -4.71364342116555  -13.20936529585087
C          -1.82140328105329   -5.54475484417609  -14.29924013547549
C          -1.43643021116520   -5.10864413021975  -15.63950236003315
C          -1.39406632413180   -3.82824526321259  -16.12031089836186
C          -1.77035235891330   -2.66783578943458  -15.41006021548104
N          -2.06264964300746   -1.67921577688181  -14.90449971078924
C          -1.00115347278637   -3.48921332166097  -17.43327042938802
N          -0.69396397472121   -3.14048130271045  -18.48271574294902
C          -1.09911323429197   -6.31207633831485  -16.38942012386028
C          -1.41118264353416   -7.44248649993332  -15.60139515660848
C          -1.17197634833165   -8.72116364829053  -16.07514442907262
C          -0.61731425360666   -8.86685283600425  -17.33816622249119
C          -0.31601773392575   -7.75868847943461  -18.11641893707153
C          -0.55401012602999   -6.47296539766966  -17.65359271846055
C          -1.99790734827680   -6.98312247975774  -14.35105159058027
C          -2.77441607819244   -7.74255074266081  -13.51438816981019
C          -2.90776308058159   -9.14229251196170  -13.60734217114770
N          -3.03415496448727  -10.28338849408704  -13.59068715735244
C          -3.58538095761475   -7.22148432273441  -12.48873886681524
N          -4.26531514888164   -6.85500738651536  -11.63890610702476
H         -15.44017273312369   -4.00221266952947    5.09018937247681
H         -15.96183879193121   -6.04849871489705    6.33627893355255
H         -14.33728672778414   -7.88659815364182    6.47746478087860
H         -12.14353216545709   -7.70888413940206    5.38098220951529
H         -11.15300648104603   -2.48745680627990    1.94402008838345
H         -11.00211703601708   -6.86459262420575    1.65499662504145
H          -9.87834582271071   -8.27018152718039    0.09116142304853
H          -8.65936028622445   -8.25870840212583    1.40441991496442
H          -6.62266800869691   -6.29900027529586   -1.51775144033574
H          -5.15750936325564   -7.72630732926436   -2.35755773474965
H          -6.11770006018364   -7.83425068777611   -4.52267629620197
H          -5.03523496949482   -9.22956425140759   -4.28420097650248
H          -4.43916343000409   -6.87553550522768   -5.90152191762324
H          -4.60853555995376   -8.42532790997003   -6.39976130940958
H          -2.53401910490033   -7.48825364458684   -2.18861251731275
H          -2.56715603052962   -8.35412143977586   -3.74692621919093
H          -3.83655168076066   -9.33637486859336   -1.31306395293109
H          -2.51502080603863   -9.95712248569813   -2.05568357009127
H          -2.09645678707306   -6.63557012390574   -4.91191262568266
H          -0.48753081224639   -4.68627293288756   -5.02802261830204
H          -1.32726256424756   -2.43065765427023   -5.78332109130534
H          -3.26017899144002   -1.78382016191250   -4.41282444627166
H          -5.34829589474101   -1.64503131485336   -2.83701059740507
H          -7.23309518864502   -2.06688849280688   -1.30745541704559
H          -0.86719570569308   -5.97201360336000   -7.04824549468531
H          -2.37962930446740   -3.42250241667539   -7.81382684737985
H          -1.60341831046558   -7.68414336826541   -8.48081530870787
H          -1.53074943073363   -9.04855145294349  -10.38123465755968
H           0.19378679216960   -8.56900098249279  -10.39356680655658
H          -1.83468126745958   -3.64813021418231  -13.39819398598961
H          -1.39681556085489   -9.58910736703391  -15.47668033359737
H          -0.41749056612584   -9.85727469222235  -17.71776374841397
H           0.11345912310766   -7.89520502865537  -19.09709659298018
H          -0.30983463929217   -5.62458504920395  -18.27123564415667
