95
 SCF done       -205.437200084965          0.000746951878
C          -7.88899120462261    3.04453158857067    1.26982558524213
C          -8.45134709619423    3.20330284669661    2.52662620188614
C          -8.23979117323708    2.26609265947385    3.52969035861014
C          -7.45171744105932    1.14830918642290    3.30691187188276
C          -6.87560175082555    0.98052237831139    2.05634257761003
C          -7.10110019280049    1.92821195986757    1.02971737262527
C          -6.42675067171480    1.48962775974531   -0.17877480546492
C          -6.31482866302889    2.18141677708841   -1.34781985117681
C          -6.82871001068518    3.48489445536463   -1.54302048240168
N          -7.21443228198483    4.54177279049971   -1.76452350037778
C          -5.67467296972299    1.72579480039671   -2.52430440947335
N          -5.20304719012904    1.42746074310352   -3.52667459417663
C          -5.89538431799687    0.14749189515847    0.10385870879796
C          -5.99564022613253   -0.05801530693410    1.55403328327939
C          -5.30427980236694   -0.95511871365856    2.31523841376855
C          -4.28478871498164   -1.81584922362928    1.86293215947481
N          -3.42365024564424   -2.52443243561051    1.58877315255902
C          -5.46771003848554   -1.09487625065029    3.71400702509146
N          -5.55413482086087   -1.27359933562880    4.84317363467707
C          -5.56592344658424   -0.73915249603355   -0.85160078234047
C          -5.23141503660214   -2.14856882240194   -0.71870602723783
C          -6.08887764133565   -3.12627462139440   -0.20174161010151
C          -7.43518362509154   -2.84678934762286    0.34418877045944
O          -7.97260687728397   -1.78268743952694    0.45658591093216
S          -8.18901085538367   -4.37945778386695    0.86022782096765
C          -6.77469003835885   -5.37446006801693    0.34514094207583
O          -6.76643572781946   -6.56348094826863    0.40728612977733
C          -5.72375622079436   -4.47197126291094   -0.16815876248402
C          -4.48152671111043   -4.92959545904112   -0.62581645075976
C          -3.62930751476197   -3.95009144168712   -1.15482977547488
C          -4.00122759321508   -2.61465256348074   -1.20145665062076
C          -2.94798398449714   -1.68697032086125   -1.66078088968346
O          -3.01105906124066   -0.49407125419215   -1.68870956828403
S          -1.50955249207857   -2.63602915458542   -2.12239031777824
C          -2.25673667717646   -4.20476658630138   -1.65031952069383
O          -1.68423053781141   -5.24590779914150   -1.74712535884207
C          -4.06450646983813   -6.32490723004819   -0.48068724615970
C          -3.78335888505921   -7.13482454411618   -1.57082462539967
C          -3.34925525557190   -8.44355898442190   -1.36210959034519
C          -3.21749345145824   -8.87103415937529   -0.03598464544448
N          -3.47356779694400   -8.09668479169061    0.99746140849958
C          -3.88223610267981   -6.86497767244400    0.79841973698912
C          -3.01584163965046   -9.28166472066878   -2.49724002257487
C          -3.05152138761197  -10.61942446946090   -2.48211353808569
C          -2.62392727642108  -11.46587737617628   -3.57539192639111
C          -1.81600520104088  -12.59036227361584   -3.31520864795192
C          -1.39628096609252  -13.02846039363977   -1.96500040951491
O          -1.60523767775887  -12.49849685501197   -0.91695365201242
S          -0.45489800714514  -14.55606724127017   -2.11013303390972
C          -0.58556272070730  -14.59209034947684   -3.88671580748487
O          -0.16124092413708  -15.46535141763159   -4.58386524586138
C          -1.32906449501917  -13.39565936970708   -4.33092555198143
C          -1.60396922389025  -13.16217042659137   -5.68388238120978
C          -2.44972155170982  -12.07982253657925   -5.94727041199371
C          -2.95659820486346  -11.26770021335719   -4.92881577478174
C          -3.94427421019327  -10.27537548322533   -5.40473417045742
O          -4.61589640023496   -9.51475152020467   -4.78057475697038
S          -4.07597606056254  -10.38902562185969   -7.20266010884529
C          -2.88784717647452  -11.71030730673621   -7.31045911536025
O          -2.54308790949232  -12.19770141507380   -8.34840858812312
C          -0.96407364035332  -13.99329941503103   -6.69249856283048
C          -1.51815385270563  -14.76201123647066   -7.64598610536565
C          -0.75184759744319  -15.38093100062145   -8.73815670598687
C           0.58754817452986  -15.63231947851435   -8.75318921695538
C           1.49941671624866  -15.32771720281541   -7.71516639307023
N           2.31008741234709  -15.09102240471957   -6.93867768681485
C           1.25842529690811  -16.25784443303942   -9.82999324017303
N           1.85990380652224  -16.76368227933896  -10.66499554647756
C          -1.70332721147656  -15.66645305560818   -9.79688955599909
C          -3.01079139443495  -15.38597127789105   -9.33318368606553
C          -4.10297234927227  -15.53857183314724  -10.17439275523639
C          -3.88563784419368  -15.97996547249305  -11.46985946282162
C          -2.60416966431083  -16.26745907738382  -11.92201809800788
C          -1.50278700901142  -16.11269011956768  -11.09497953465022
C          -2.93918089843848  -14.97726502092600   -7.94281946085579
C          -3.98296445851624  -14.93351754633120   -7.06476047336729
C          -5.33408594689906  -15.13099084779060   -7.43435976005451
N          -6.44951223417505  -15.25868263712983   -7.66704146187520
C          -3.87406151556148  -14.76554998848094   -5.67012820167138
N          -3.86318299470384  -14.67042138022003   -4.52595719759800
H          -8.07299808592162    3.77514014520525    0.49952174216568
H          -9.06852181814310    4.06623117247163    2.72407146227027
H          -8.69693252544251    2.40644202764447    4.49703155293148
H          -7.30692190013238    0.42385879101954    4.09122119056953
H          -5.55452151516529   -0.39589143909958   -1.87906063903175
H          -3.92589545321061   -6.76891660774250   -2.57715452755285
H          -2.86036391702854   -9.86351242455718    0.20132998376361
H          -4.05222721698014   -6.26605766877814    1.68260930528481
H          -2.69853233428905   -8.75019943702212   -3.38443371031802
H          -3.33004019909558  -11.13936566831377   -1.57649247428607
H           0.11763877764607  -13.94943305097753   -6.64626011928700
H          -5.10162078862506  -15.30848076905001   -9.84139255335838
H          -4.72618219528187  -16.09870081970556  -12.13609543076977
H          -2.46010984494540  -16.61060858898538  -12.93497732739080
H          -0.51423193010401  -16.32927478741599  -11.46506380563085
