115
 SCF done       -209.521985664938          0.000741647909
C          -2.46965362933693    2.55649894363260   -0.24586717172506
C          -2.13019780205896    2.65731316102160    1.09508031245186
C          -1.60870171120263    1.57273574264591    1.78593720806686
C          -1.40247378422292    0.35651783624289    1.15238804405266
C          -1.73471079530139    0.24500396475599   -0.18745347682503
C          -2.27668858154529    1.34461177902293   -0.89039511550030
C          -2.55598328706211    0.93518678167280   -2.26085376213197
C          -2.96127566680287    1.75981488893217   -3.27671542819506
C          -3.16933812623337    3.14816726424056   -3.13142706237390
N          -3.35769011985963    4.27946609196649   -3.08429410678111
C          -3.18544007054195    1.37039259078027   -4.61432269355922
N          -3.37987844078507    1.13757390501063   -5.72194663193928
C          -2.32427632235535   -0.50342388377982   -2.32585281714572
C          -1.61180617383972   -0.87479890636331   -1.10846196270513
C          -0.76482020730598   -1.93765358082240   -0.95012044684727
C          -0.45398232088199   -2.87532496774090   -1.95777627290460
N          -0.10880800971904   -3.64443547176127   -2.73654061173281
C          -0.01607180562196   -2.17684882355198    0.22156664349325
N           0.61341379947879   -2.42712979376412    1.14799812092113
C          -2.80297899504683   -1.31736869210175   -3.31723749085302
C          -3.00350595348123   -2.71484660047036   -3.28487852097679
C          -3.16440009257602   -3.55008658644679   -2.19500662656530
C          -3.42200835015780   -4.87007396201971   -2.65706993958783
C          -3.41783226791976   -4.77607775772828   -4.11565666428211
C          -3.19370141504909   -3.50929861747367   -4.49885165323464
F          -3.62403736965811   -5.82623878837324   -4.91807131179169
C          -3.60860632998414   -6.00857366684096   -1.90114956011077
C          -3.84566766417214   -7.33161529967638   -2.34262157416227
C          -3.97678900013082   -8.16666567681001   -1.24482131362264
C          -3.80920733250092   -7.35201469817203   -0.03294412683584
C          -3.59295635734591   -6.09213883037228   -0.43246676178932
F          -3.39079510735811   -5.03396106724105    0.36110486971051
C          -4.23121146079924   -9.54862026726991   -1.31360215493251
C          -4.41990162423630  -10.35037052991260   -0.22351982772947
C          -4.64559472403573  -11.74190254687164   -0.18589876806488
S          -4.94661544665036  -12.40607811092117    1.39560195765367
C          -5.02895863110780  -14.03263255899981    0.78662000002093
C          -4.75572988909003  -14.04577266835718   -0.58922395303899
C          -4.60694298572631  -12.76971871795885   -1.14214034897901
C          -4.44273135274743  -12.53353658037880   -2.62245485667833
N          -5.43934319716451  -11.57094309237552   -3.07953630158429
C          -4.51870621253730  -13.85371122536601   -3.40598921458992
C          -3.77191043621258  -14.95751524518537   -2.68091864755765
C          -4.50323640945326  -15.30701051188747   -1.37582626402973
N          -3.77086399583452  -16.25910362933310   -0.55450649518053
C          -5.41043942896736  -15.02645820322542    1.71152484826776
C          -5.82659021801745  -16.29908277732589    1.44368512233906
C          -6.24196227808006  -17.22037808012332    2.42308663305880
C          -6.70784483582757  -18.49883008690645    2.16176052042020
C          -7.03761493038895  -19.13817015669122    3.38065505903929
C          -6.73389207051649  -18.14899861852383    4.42489002576899
C          -6.26669573184298  -17.01861994136890    3.87723460493096
F          -6.90925819047893  -18.38215172505213    5.72939459772237
C          -7.53900732150698  -20.40943352230128    3.57584024057372
C          -7.87981895477843  -21.04816226266163    4.79801255137071
C          -8.34427926417480  -22.32568741369621    4.53045442057829
C          -8.30611685182081  -22.52730009242110    3.07991748511271
C          -7.83487844609040  -21.39529447822625    2.53507110170385
F          -7.64149566262330  -21.16691160526698    1.22991879893502
C          -8.77839722982796  -23.25344747571815    5.49493037029640
C          -9.23110914780954  -24.51500223721685    5.21931803348358
C          -9.62922595581148  -25.40592060173215    6.22865894899668
C         -10.17644827641158  -26.65246855470606    6.04079819950469
C         -10.18388133970909  -27.71609544324933    7.03465128325162
C         -10.03007799030803  -27.58646969871345    8.38979474634288
C          -9.88478546595029  -26.36443894983433    9.07965379096596
N          -9.76991408834514  -25.40965876109339    9.70718001539941
C         -10.04172286950548  -28.66950025535757    9.29396630232774
N         -10.03928636382566  -29.50311353315163   10.08303933572876
C         -10.39042230801322  -28.96506181764483    6.31135357872934
C         -10.65497205346485  -28.66827023323757    4.95500978003263
C         -10.86605319903913  -29.68405641351490    4.03813939057117
C         -10.81173298316678  -30.99746104764456    4.48107120453226
C         -10.56058757553894  -31.29086747961509    5.81345622884504
C         -10.34918830468678  -30.28158687074490    6.74144079994931
C         -10.67597207332883  -27.22082642846820    4.79899394678611
C         -11.27269152261541  -26.53763923079467    3.77130547643169
C         -11.77010161148944  -27.15396562096926    2.60415437002804
N         -12.16632958652202  -27.59619490864767    1.62176601201504
C         -11.57648807573765  -25.15895578465364    3.79874031573636
N         -11.90185631968274  -24.05835779896243    3.78892074699302
H          -2.88048678267095    3.40771287878204   -0.76308041028377
H          -2.28024337512560    3.59507086536656    1.60782183557249
H          -1.36112474243369    1.67358290919902    2.83152899548272
H          -1.00586473433810   -0.48227771717584    1.70095513884274
H          -3.14438232214442   -0.83932260413807   -4.22666436019422
H          -3.15645417700574   -3.25858014935149   -1.16283736169488
H          -3.12494727462674   -3.12508310398361   -5.49751673131641
H          -3.91881186592649   -7.63580978188212   -3.36796789127303
H          -3.84758803576432   -7.70729466418424    0.97748111046189
H          -4.32808650675150   -9.96926513529841   -2.30157380139117
H          -4.39460269499061   -9.89029212712519    0.75657650896310
H          -3.45670552002076  -12.07517520391705   -2.78933045881843
H          -6.37459539006944  -11.90661208476632   -2.87634471136296
H          -5.36440270246288  -11.44594817641799   -4.08329004972766
H          -4.10649166153856  -13.70030492702125   -4.40536720540439
H          -5.56818217108197  -14.14423042363269   -3.51568769429659
H          -2.75602266015082  -14.62515486292999   -2.44878190853902
H          -3.70359344962628  -15.85008873238608   -3.30647979190667
H          -5.46671161193975  -15.77255703326659   -1.63085735558780
H          -2.87602480705399  -15.87164354600423   -0.27650803270999
H          -3.59493034040763  -17.10983000093638   -1.07656536155475
H          -5.43308250646237  -14.68750712425515    2.73917002656255
H          -5.85648944165930  -16.64947031583516    0.42590071799069
H          -6.80705644396501  -18.93708396636386    1.18844331405074
H          -5.96281723031820  -16.13194969756838    4.39675701187892
H          -7.79096110642589  -20.60749972727772    5.77178385195564
H          -8.61441314241164  -23.41025053860817    2.55703503291972
H          -8.76892048002236  -22.92038490821793    6.52543678578396
H          -9.24134220951545  -24.85202628949200    4.19380469501871
H          -9.39876856552229  -25.10680576806135    7.24223815465122
H         -11.05623297818280  -29.46902595283722    2.99912832110218
H         -10.96602711113549  -31.80012156053413    3.77631228502891
H         -10.52447976546579  -32.32011637552979    6.13614906346915
H         -10.15109201065795  -30.52889763832887    7.77131417010211
