120
 SCF done       -238.498231244632          0.001415906911
C          -4.67457013417932    1.63384551497673   -6.07334029508039
C          -3.63217429896254    1.02960156404120   -6.75807345095180
C          -3.24319948433491   -0.27147120261311   -6.46688950239299
C          -3.89235610070969   -1.00853806704679   -5.48934827308708
C          -4.94228158669792   -0.41932307711299   -4.80099564298942
C          -5.33085506791728    0.91083060746564   -5.08790025681217
C          -6.41100841515254    1.29362461765731   -4.19663608265297
C          -7.12310819544006    2.45577193919359   -4.22828742272961
C          -6.92640856724500    3.47362040353698   -5.19018011362023
N          -6.82172326889085    4.33291777050123   -5.94242690101720
C          -8.15468560055181    2.82256460128631   -3.33230011140437
N          -8.97955620665013    3.21422566662637   -2.63754436429068
C          -6.57557029489146    0.18684913743245   -3.24335320446064
C          -5.80733300593203   -0.94948705487483   -3.76339698147153
C          -5.95609673188211   -2.26669505472458   -3.43914630253525
C          -6.95292301147000   -2.80553505420728   -2.60137889346733
N          -7.74997662714924   -3.33568265599000   -1.96714679936202
C          -5.15786171355305   -3.30485291411763   -3.97389518802074
N          -4.54219202549181   -4.19503190519006   -4.35223293538156
C          -7.17019696362662    0.31838783576583   -2.04498648704961
C          -7.20726566152588   -0.61289219310348   -0.92781032019888
C          -6.08124209242362   -1.08282590872723   -0.24488668269314
C          -4.69202544358461   -0.78765669518174   -0.62857764074801
O          -4.30375156236447   -0.11155526876069   -1.54121593772106
S          -3.58492955057982   -1.63512035328142    0.48959110956323
C          -4.93133420561721   -2.35026783267273    1.45637219013797
O          -4.74149224934533   -3.08684316598877    2.37749696559449
C          -6.20804304575650   -1.89057497604498    0.89363210063415
C          -7.45056661907799   -2.26574475302672    1.41744000205443
C          -8.57584043742435   -1.82415268028002    0.71018025797191
C          -8.44672676726328   -1.02203786773605   -0.42143170858041
C          -9.70147835385840   -0.70766276603907   -1.11690011171695
O          -9.82291591886435   -0.11763415014019   -2.15145515795478
S         -11.05851511348606   -1.39581724306690   -0.18060028989358
C          -9.97762923204218   -2.11172775602313    1.07185028703420
O         -10.40383883237212   -2.70434542337646    2.01817883137798
C          -7.57060097226386   -3.03032513708237    2.66552822439801
C          -8.16866696533562   -4.26430581215618    2.68329109538219
C          -8.35193790822842   -4.91929835438296    3.91579144776669
C          -9.00603238049633   -6.11167525555728    4.22462350071161
C          -9.63429254288192   -7.04691103710965    3.25793804725838
C          -9.14138621828577   -8.49887227854264    3.44947300853096
N          -9.26845925581857   -9.19186975858658    2.19041144784739
C         -11.17319117766962   -6.96365907829621    3.32331879697348
N         -11.75748141951462   -7.68481688683667    2.20301931583939
C          -8.99798242029889   -6.22583959915626    5.66523410114225
C          -9.57913246058128   -7.11260035557140    6.49743263609112
C          -9.50247060249719   -6.94582814721102    7.97606793033586
C          -8.58713187147831   -5.86992488660857    8.44483481987638
C          -8.03088462016441   -4.97650056094288    7.59842747808864
C          -8.25154107919245   -5.08677287263147    6.20912206249321
C          -7.88051904197504   -4.28622540590215    5.13105133478788
C          -7.22738508085952   -3.04298922941875    5.06898856751195
C          -7.08543643373442   -2.42900961998073    3.85955226535117
C          -9.25115759380949   -8.28651829188567    8.62139848455351
C         -10.21260572133614   -9.19120939064642    8.72097434311227
C         -10.06313363759733  -10.56193894182504    9.19892035920633
C          -9.74916366235521  -10.91426090932682   10.51371865378058
C          -9.48154212856492   -9.93530986419247   11.57581691020080
O          -9.45086675192422   -8.74182033486402   11.50638993005557
S          -9.18237293969752  -10.82155568188063   13.11549189632662
C          -9.40067844163191  -12.42950063942779   12.36087711358817
O          -9.29353526171222  -13.45371331833561   12.97865007098135
C          -9.72955231494118  -12.25231886990837   10.94079831600146
C         -10.02298135198401  -13.30590808379484   10.06472579308611
C         -10.29399900488035  -12.94856132282850    8.73984981167652
C         -10.31623748463115  -11.62010734513897    8.31801454069570
C         -10.63247603950236  -11.44306420926482    6.89672721843698
O         -10.66464017731633  -10.41881282695586    6.26963014582316
S         -10.96209256095050  -13.04984049517550    6.17322576626171
C         -10.70498878494399  -13.92164578426075    7.72216200612018
O         -10.88146703329420  -15.09627840952767    7.86493667198450
C         -10.00718219347643  -14.71224251854007   10.43620452087229
C         -10.71897371261600  -15.32935883100740   11.39598764694666
C         -10.46549178200094  -16.70572300202519   11.84614871789548
C          -9.80504585282101  -17.68008001253796   11.15885878717460
C          -9.22206437071520  -17.54331502456998    9.87702640820177
N          -8.69546471145212  -17.51845699676059    8.85819709595694
C          -9.61735726394091  -18.99513995416704   11.64401403530682
N          -9.43860188442935  -20.07772357068252   11.97773641008867
C         -11.04227009781803  -16.81689622463533   13.17420167130048
C         -11.74350676977686  -15.62550395024157   13.47626997959845
C         -12.34722393256532  -15.45909025196558   14.71386388335098
C         -12.25995021821945  -16.48771713979094   15.63813681895918
C         -11.58598497946353  -17.66420426103094   15.33682857790243
C         -10.96966127507281  -17.84036331692469   14.10800297634557
C         -11.69862739628162  -14.74777608651579   12.32166923007028
C         -12.51309399352498  -13.67468531213980   12.10337551539244
C         -13.42212079059677  -13.16780757624208   13.06151514085403
N         -14.17107528134832  -12.69283735632012   13.78889715528204
C         -12.64329131396885  -12.96089681938433   10.89526825047857
N         -12.84879800346625  -12.34967461541689    9.94530613990763
H          -4.95606059513621    2.64824167130762   -6.30329991351134
H          -3.11168989543633    1.58370905466844   -7.52409131005844
H          -2.42139046875377   -0.71648755669788   -7.00648042132596
H          -3.57154748081560   -2.01265816107436   -5.26612989752923
H          -7.68252472973319    1.24936190093409   -1.83396839625548
H          -8.50386292867687   -4.72024947074837    1.76445655376616
H          -9.33306577307710   -6.75325959632558    2.24745570784745
H          -9.70540849121959   -8.97685557582079    4.26389788843919
H          -8.08268056158982   -8.48761470296921    3.73099659208973
H         -10.24122836429643   -9.18468200606720    1.89756234495871
H          -8.92206397003997  -10.14105313391534    2.24071085341202
H         -11.46050303853163   -5.89937439387933    3.35127984867491
H         -11.52655837174354   -7.43436503785186    4.24406990380339
H         -11.55495952831851   -7.20002939144719    1.33404502326686
H         -12.76568512121660   -7.73235460257717    2.30139389287044
H         -10.13930349729943   -7.96535858286755    6.14480056417510
H         -10.52045094894872   -6.64421184287412    8.28164961013692
H          -8.42640130116280   -5.81559607595031    9.51032190731710
H          -7.40628457188241   -4.17809535027062    7.97042662949501
H          -6.86554473749799   -2.57459167030907    5.97138860458287
H          -6.61622247596777   -1.45875067557368    3.79212894400231
H          -8.23781854881800   -8.49328375527918    8.92933492805628
H         -11.20859093084895   -8.96707289442357    8.35650195085467
H          -9.31170713978541  -15.30519305091349    9.85523896636100
H         -12.86272736159438  -14.54712957729630   14.96632704822880
H         -12.72108516501130  -16.36920666739714   16.60665328543556
H         -11.53310484280465  -18.45228666857642   16.07230109574549
H         -10.44006761220964  -18.75442401531155   13.89556003284784
