108
 SCF done       -214.921139146443          0.000720802827
C          -5.88344010771644    3.82511022108684    2.30514714492607
C          -5.03523588851984    4.24667752460380    3.31840162531789
C          -4.07972205460417    3.39501849030574    3.85424425756989
C          -3.93926075991797    2.09705332022158    3.38624216369361
C          -4.78074849197524    1.66496233045717    2.37470308043596
C          -5.76114398924979    2.52771126715758    1.83264210014633
C          -6.50789578614709    1.81092746598314    0.80614514885098
C          -7.46774621996824    2.34391465556268   -0.01134807737117
C          -7.87387094322409    3.69557710068812    0.02172924496346
N          -8.25107233068371    4.77900129535368   -0.00633180262229
C          -8.16240782109874    1.64571657390832   -1.02237068825204
N          -8.76484173795265    1.14842845589013   -1.86349386659690
C          -6.04509085566351    0.42844544333420    0.84008481129885
C          -4.84654758550433    0.39705883843243    1.66599025070006
C          -3.84464178420528   -0.53401676761323    1.58389644338827
C          -3.79894498177658   -1.56343411860122    0.61837681902919
N          -3.65953573552146   -2.35755607907961   -0.19861482294527
C          -2.67865883488671   -0.50065165295928    2.37675758552309
N          -1.72415131634952   -0.53061857424417    3.01278586691403
C          -6.68446133370786   -0.64182376803073    0.27398311336373
C          -6.52699604739487   -2.00266861847119    0.62212579428744
C          -6.83656627739549   -3.07233898935699   -0.19295172472302
C          -6.53200263425362   -4.28332225643692    0.49299116732241
C          -6.08980389189699   -3.86822358435708    1.82373198178800
C          -6.06853064945717   -2.52863988134203    1.91340053509590
F          -5.77584731214619   -4.72690658923944    2.79742373367322
C          -6.58669339432887   -5.57202444299791    0.00976313781266
C          -6.21513815841284   -6.77440140759644    0.66832966554310
C          -6.36613267019722   -7.83341045446136   -0.20848609530101
C          -6.86977817938703   -7.30431752840488   -1.48233483153983
C          -7.00274310470400   -5.97895397940640   -1.34046685276626
F          -7.44643742480057   -5.12070980210548   -2.26079507784931
C          -6.08726217364825   -9.20066099807942   -0.00757990266905
C          -5.70327069571051   -9.75182597283239    1.18248403810285
C          -5.39964965900863  -11.12505457994661    1.30977113754826
O          -5.39465993411589  -11.89067888520475    0.20491569911771
C          -5.06028793689037  -13.15658093858316    0.53645801398248
C          -4.84601967285814  -13.22773773922738    1.93396553155337
C          -5.06268885069968  -11.92117252521604    2.42282808148679
C          -4.98101422934125  -11.44423794221668    3.83276420136920
F          -5.28405243188303  -10.15201805116906    3.98067609093799
F          -5.82096301089074  -12.10841445341390    4.65309785836525
F          -3.75059150327309  -11.59234972329194    4.36403961892684
O          -4.50782557086387  -14.38956256697116    2.49014434880883
C          -4.20932143493723  -14.51227342953158    3.87091911242347
C          -4.94697257312611  -14.11343069060084   -0.48606733915422
C          -4.63322414479656  -15.43173563848095   -0.30718016897172
C          -4.46207025683178  -16.35621939002386   -1.35396611388847
C          -4.14575817636372  -17.69603486781604   -1.19866396917559
C          -3.99388647844976  -18.29316321212297   -2.47511641339971
C          -4.25681817642209  -17.21335868118065   -3.43609358258881
C          -4.54157751068365  -16.07305813417166   -2.79238950614511
F          -4.22200459530279  -17.38500974582849   -4.76163083482106
C          -3.65169514651632  -19.59337643325826   -2.78195853204000
C          -3.41301098589090  -20.16209924974801   -4.06279160566945
C          -3.06437323350517  -21.49154987846013   -3.91042095771208
C          -3.09503479430783  -21.81240872815364   -2.48137358455326
C          -3.43071452295900  -20.68705852790814   -1.83242016835745
F          -3.57038565210320  -20.54516317696218   -0.50985085745345
C          -2.67890249273879  -22.35376231098743   -4.95682323284115
C          -2.39736334115869  -23.68149466595919   -4.81938023084280
C          -2.00106541877619  -24.54020988782944   -5.87174885647675
C          -1.31567358553939  -24.21404806749025   -7.01163461743059
C          -1.30252195998716  -25.01607247759906   -8.23055936228180
C          -1.68826545170783  -26.32232462840406   -8.37213505357932
C          -2.13793616325072  -27.16731848108464   -7.33519432427098
N          -2.50920214898162  -27.91853335299285   -6.55004443245245
C          -1.64973247583120  -27.03021442624601   -9.59297140328769
N          -1.64432614042197  -27.66692701442899  -10.54781685991691
C          -0.80526707184606  -24.15483206017243   -9.29593215333364
C          -0.38146804940658  -22.92959472361412   -8.73329074513829
C           0.11458406484612  -21.91640930751181   -9.53711809643450
C           0.19301102913225  -22.13472009648974  -10.90422608257794
C          -0.21024999074802  -23.34167592717291  -11.45773162866288
C          -0.71325203418450  -24.36137873497717  -10.66362920563036
C          -0.54724737872054  -23.00478430494853   -7.28981115690225
C           0.12870645245676  -22.23949968603672   -6.37749876579210
C           0.94085632996808  -21.13956027543344   -6.72402692906923
N           1.59976283622123  -20.22646740643875   -6.94576282589400
C           0.17492831024940  -22.49779203422337   -4.99135361719381
N           0.30516459880410  -22.68001032713424   -3.86578229673853
H          -6.62116125105722    4.50041425031036    1.90443376222782
H          -5.12452626740893    5.25379594894460    3.69574994133430
H          -3.43566385473733    3.74458526180130    4.64645487219168
H          -3.19704602615538    1.44208152625499    3.81309645319014
H          -7.43360503855965   -0.44649668970603   -0.48187840311052
H          -7.17800233957185   -3.00360707824250   -1.20718430686671
H          -5.83351502923514   -1.94572577706537    2.78275617955238
H          -5.85387730650572   -6.82898957796946    1.67571340590195
H          -7.08895701953577   -7.89638672319890   -2.34920514425446
H          -6.19238242386037   -9.85124277258830   -0.86553826006948
H          -5.62894687868625   -9.13183025632528    2.05863484425587
H          -3.93402116657653  -15.55712726311246    4.00416501946416
H          -5.07777872764328  -14.28940162477031    4.49235887254335
H          -3.36745825244080  -13.88037056817003    4.15765109913413
H          -5.12242026871169  -13.72674914886911   -1.47965445237144
H          -4.49041794831451  -15.80272555925966    0.69662567163685
H          -4.01670454435573  -18.20180395250832   -0.26212759783093
H          -4.77567677808087  -15.12666706345787   -3.23695821490241
H          -3.47573865628216  -19.63376005892073   -4.99415901897887
H          -2.86368943426048  -22.76379053632540   -2.04679403793601
H          -2.63009441862503  -21.90459419617823   -5.94233009011227
H          -2.58447804078629  -24.15614226346872   -3.86666117485282
H          -2.32900869336633  -25.56678400495862   -5.77083556202151
H           0.42358327264571  -20.97215148949943   -9.11914902562557
H           0.57259718319792  -21.35298469604439  -11.54409273050743
H          -0.13659397153670  -23.49126017275593  -12.52397329844436
H          -1.02737438354414  -25.28870564473226  -11.11315895457311
