108
 SCF done       -224.365664983215          0.000934044612
C           1.89648784677395   -1.78850486872950    7.63536026951579
C           1.40202302935618   -1.87756765665955    8.92707264070831
C           0.51333652632604   -2.88279567232741    9.28609355492988
C           0.10216074493794   -3.83322739480117    8.36559066111651
C           0.59539678903297   -3.76163238607553    7.07097507546262
C           1.49024263646629   -2.72980825795194    6.70079435373536
C           1.80633496224122   -2.85821509855691    5.28961326241874
C           2.70664732713051   -2.11551224742648    4.58564374687352
C           3.51339652075389   -1.10509834527828    5.15963266849432
N           4.19854876006962   -0.27813634766929    5.56167806256978
C           2.98352604136833   -2.23331213326330    3.20310571626522
N           3.25136020234500   -2.23805857682157    2.08768989431384
C           0.95065380645593   -3.93392881175105    4.76623962545769
C           0.36202631607069   -4.61869948621127    5.92384393719052
C          -0.19083602081378   -5.86599328633076    5.96316448171851
C          -0.24739208297870   -6.79490439174043    4.90579899416749
N          -0.31949667245469   -7.63263927926552    4.12312283459249
C          -0.74806583853821   -6.44840381710859    7.12651908436576
N          -1.22891932792130   -6.98688098270430    8.01736911261213
C           0.66273176054442   -4.08689162128274    3.46149801991755
C          -0.32173018467070   -4.95828971782646    2.84023276474708
C          -1.69736887607441   -4.91665139741528    3.10028556269147
C          -2.33384305524198   -4.01322863299932    4.08345237569427
O          -1.80159047416133   -3.20388594241151    4.78769309147037
S          -4.09324761646935   -4.31210657253262    4.10335071937668
C          -4.00458727181438   -5.57397737983287    2.81494272139225
O          -4.96786351778217   -6.12647793419539    2.38824684161622
C          -2.58980357829013   -5.75020621404703    2.42660179877845
C          -2.17751607867927   -6.67282303946417    1.45914094160083
C          -0.80457851629733   -6.70410913688470    1.19478576969584
C           0.08466978757103   -5.87352618808108    1.86085610870293
C           1.51039397116511   -6.12291811694460    1.56503859764751
O           2.44773681970177   -5.60036706592068    2.09238574218402
S           1.62511351240788   -7.39431077007826    0.31969157288491
C          -0.15965488102776   -7.65702453451046    0.26213741067800
O          -0.67261803694818   -8.48694029059955   -0.41881982421797
C          -3.13091098659605   -7.54444780136922    0.75533765592363
C          -3.43549619658500   -7.26559412392857   -0.55228746723884
C          -4.38209878876159   -8.04246929488695   -1.24118564083086
C          -5.01437991413331   -9.07577887746001   -0.56389262066485
C          -4.71018825849809   -9.40129624940733    0.76132795074403
C          -3.72788474678596   -8.63380350348887    1.43332143863469
C          -3.34137646233651   -8.97209522128674    2.75726993535811
C          -3.92975099131493  -10.00471451477115    3.40635541815423
C          -4.95053687027111  -10.77948784593854    2.79028696736364
C          -5.34983871503347  -10.48968145484258    1.46361072878165
C          -6.35848375925296  -11.28284040526777    0.89452756419661
C          -6.94164778760577  -12.30901631983173    1.59727419166903
C          -6.54082380433188  -12.59221930554138    2.90354016566293
C          -5.55890052754481  -11.83570065211918    3.48857698755194
C          -4.72150821059226   -7.79254031510294   -2.62151654396054
C          -4.01522229716479   -7.02038326141713   -3.46686083206251
C          -4.34177993624903   -6.82661975651432   -4.85519463902801
C          -5.65259692345699   -6.60520649430506   -5.33352539396750
C          -6.83173938501659   -6.30914199548840   -4.48567286875337
O          -6.91466151990911   -6.25525360013774   -3.29861894334535
S          -8.24808252632747   -5.95323914117450   -5.54921325542226
C          -7.29742871890419   -6.10519550600253   -7.04235207448919
O          -7.71397685345046   -5.88415565902817   -8.14156519470796
C          -5.91582526444306   -6.48998552302936   -6.68932174309562
C          -4.92752905387806   -6.58095480450401   -7.67972915224054
C          -3.61925789754139   -6.73369909234716   -7.21018752524002
C          -3.33666484134215   -6.82679544367569   -5.84706883315388
C          -1.89897272325687   -6.93644784117678   -5.54387143670210
O          -1.35416923018798   -6.99007095674782   -4.48403904096458
S          -0.96853784448565   -6.95252091442411   -7.09187177849790
C          -2.43562434936854   -6.83027231117503   -8.09197720872676
O          -2.41123656917677   -6.82823428058671   -9.28991344276062
C          -5.31832725884658   -6.54876849916890   -9.08009320634745
C          -4.91009913373580   -5.71388794482312  -10.05266673508167
C          -5.19989312817441   -5.91779513214521  -11.47898276309663
C          -6.21429390199885   -6.65963826866648  -12.00654653065723
C          -7.17256246649220   -7.39404248507897  -11.26909909591059
N          -7.96770109950505   -8.04135328600786  -10.75427402954335
C          -6.45675366207542   -6.78427635687001  -13.39422547147372
N          -6.71252219654961   -6.91600670049098  -14.50427870508835
C          -4.19050432800796   -5.17473936005919  -12.21232578434635
C          -3.41605829860418   -4.42032716577690  -11.29907804397490
C          -2.34834248490627   -3.65618109756369  -11.74532890343225
C          -2.06568769485165   -3.64094438182022  -13.10190315917838
C          -2.83371796068320   -4.36978735765744  -14.00080341195640
C          -3.89936943685576   -5.14329358421242  -13.56811760230502
C          -3.95415812666465   -4.60437360444989   -9.96419212404968
C          -3.70874912038296   -3.80920612415198   -8.88257534464517
C          -2.74715960597018   -2.77226501173298   -8.86870092227031
N          -1.97302923535587   -1.93099304891633   -8.78095307600206
C          -4.41226873148296   -3.84898327188910   -7.66239147537293
N          -4.96214804432660   -3.79511536420573   -6.65588219532435
H           2.57569525291025   -0.99499290057023    7.37095656378720
H           1.70838823897601   -1.14864552986391    9.66147927574664
H           0.13317823043134   -2.92461222164242   10.29515335062680
H          -0.59768265238366   -4.59921435550888    8.65608696382646
H           1.20554718266898   -3.47989183833970    2.74731279090907
H          -2.96579179341828   -6.42585461318322   -1.03987785852691
H          -5.75380407017427   -9.64941497567500   -1.09975052281333
H          -2.55385721621250   -8.40746639910862    3.23668312254834
H          -3.62988503909263  -10.26061469137713    4.41224752905203
H          -6.69813264878808  -11.09104047349327   -0.11053367251452
H          -7.71801219787039  -12.90186642064252    1.13680007434092
H          -7.00528848997796  -13.40213508931987    3.44560364598299
H          -5.23776126580823  -12.04040217823654    4.49963056261027
H          -5.58345644412657   -8.33327962296097   -2.98955498649647
H          -3.07978200095456   -6.58736455924025   -3.14686729863310
H          -6.02041585328161   -7.32968282899802   -9.34574479489918
H          -1.73660107274185   -3.09524340005305  -11.05803734900693
H          -1.23387926271534   -3.05549944889545  -13.46234295091629
H          -2.59429523492440   -4.34149043723645  -15.05273291726748
H          -4.47745112462956   -5.71279390765518  -14.27717450743251
