107
 SCF done       -209.672795144954          0.000388962999
C          -4.08739931966011   -0.38417216915063   10.78230092482738
C          -2.81053146841325    0.13270534010257   10.94514388670033
C          -1.75454764479427   -0.30391250863860   10.15798014149081
C          -1.94635901073135   -1.26674011354920    9.17827002868182
C          -3.21676884144275   -1.79068722969414    9.00725453127984
C          -4.29311578164147   -1.35357248829213    9.81326874602865
C          -5.49715214035822   -2.08105621798517    9.43040595532587
C          -6.76109166809656   -1.85345929610786    9.90454391583728
C          -7.08343178454141   -0.85597517617896   10.84986463048059
N          -7.41488009299056   -0.06553489423877   11.61304054663116
C          -7.92394393482846   -2.54101515453888    9.49589602916251
N          -8.91340403099683   -3.04914428917637    9.21174710657303
C          -5.08571781522212   -3.09138656132368    8.46354992606462
C          -3.72518963201014   -2.76882761230200    8.05892994263116
C          -3.14252467352942   -3.11733780068824    6.86861451229966
C          -3.81660149600862   -3.78677955586588    5.82392477127744
N          -4.33904777830787   -4.23624069237879    4.90591845069427
C          -1.83544919925329   -2.73936799064295    6.49771196141674
N          -0.77093936774433   -2.47328934732816    6.16143155681650
C          -5.81941668178445   -4.18628290603140    8.09040262160551
C          -5.32486206148829   -5.37610583486787    7.51171669428292
C          -6.07405874839626   -6.27016880301660    6.77186238981577
C          -5.23069890917762   -7.32753990072187    6.32959960858980
C          -3.92618392175656   -7.05559394138552    6.93128436474870
C          -3.96030934156275   -5.90351204114858    7.62090167348900
F          -2.87208547499173   -7.86451116296247    6.80358792145358
C          -5.53775640702306   -8.35722466165216    5.46550355544475
C          -4.67926710972337   -9.35807531294985    4.94795081439562
C          -5.37906923497035  -10.12766907272118    4.03124173447260
C          -6.75706117278385   -9.62585304851478    3.97060239529503
C          -6.83887160703375   -8.59476475401161    4.82273408945180
F          -7.92670217078101   -7.86542033654671    5.07646690113091
C          -4.83591803601492  -11.18292495801836    3.28131949424092
C          -5.47825292955545  -11.80073972129012    2.24098099375556
C          -4.94449925485914  -12.80867226610812    1.41771298418773
S          -5.56599268505091  -12.92953735879787   -0.19642089620786
C          -4.32002578312764  -14.02021745327641   -0.71750422521926
C          -3.43293183784388  -14.28916024934884    0.35616927896233
C          -3.84325464825962  -13.68430870986295    1.58632126861891
C          -3.16345678282575  -13.99463334123125    2.78853941968561
C          -3.67856683244019  -13.73494131987716    4.16522661234219
O          -2.96524886352166  -13.47445070634075    5.09253973806258
O          -5.00226791398881  -13.91318091058500    4.34094911696602
C          -1.97712910428275  -14.69747947070338    2.71156205689531
C          -1.47904505497329  -15.14267361946819    1.49336033285441
C          -2.19324236930572  -14.97836304221894    0.32040438644582
O          -1.71816398171578  -15.43299135297550   -0.84939885814028
C          -4.39753217735194  -14.47401609019755   -2.04747886903191
C          -3.80248923843822  -15.55536151616067   -2.67685773957724
C          -4.21445975432627  -15.59115588103519   -4.03116905424367
C          -5.13020829154381  -14.45883867209214   -4.19255015425610
C          -5.26176387690437  -13.80485766932026   -3.03032540623497
F          -5.73460893659078  -14.15424149902072   -5.34421847402511
C          -3.82771035960323  -16.48070439443609   -5.01435248476669
C          -4.18736036679695  -16.48020116646756   -6.38721383256158
C          -3.53132350805346  -17.51670738928280   -7.02892133385634
C          -2.73038893224851  -18.23483398741663   -6.03541307249734
C          -2.91063110764187  -17.61227460104879   -4.86039852607349
F          -2.35174574573172  -17.95111371951890   -3.69152577752059
C          -3.58073844437615  -17.76948834379802   -8.41311677638955
C          -2.96080153773216  -18.80601258632790   -9.04969844390492
C          -3.00148203229791  -19.04192133507190  -10.44295095787718
C          -3.16550222540205  -18.12541658328092  -11.44835065094794
C          -3.62561780571281  -18.44710758672692  -12.79491120113386
C          -3.66576477639487  -19.68028796641530  -13.38898641816355
C          -3.21745483429612  -20.88795320296584  -12.81292450725227
N          -2.87190629628935  -21.90951863345836  -12.41841674407482
C          -4.12905046807086  -19.90952866843820  -14.70261450680619
N          -4.48977784169436  -20.16957077591753  -15.76063673186571
C          -4.05020540526045  -17.19339091580353  -13.40501293217763
C          -3.71100915281985  -16.12740108226356  -12.54139933761345
C          -4.02814868005488  -14.82044012110093  -12.87263326564266
C          -4.68039232015654  -14.58197025402646  -14.07293791987709
C          -5.00434636132148  -15.62577777727284  -14.92803458222973
C          -4.69500931743201  -16.93872756672564  -14.60530854605049
C          -3.01712910892556  -16.67513882433724  -11.38571332001235
C          -2.16715139049430  -15.97533324160888  -10.57141429307204
C          -1.99176000314518  -14.57729704032897  -10.63644724333162
N          -1.81981849237306  -13.44258411078158  -10.63229845821947
C          -1.29933989375541  -16.56089709106252   -9.62600605107403
N          -0.53213752685855  -16.97187557957945   -8.87798527571835
H          -4.89376269251825   -0.03496883583261   11.40582760652583
H          -2.63856203046059    0.88481030307395   11.69976805397550
H          -0.76887379145101    0.10897662718053   10.30841577030167
H          -1.11794701994270   -1.60294249142393    8.57589932857965
H          -6.88104955820729   -4.18405340067570    8.29941787815109
H          -7.10533644891745   -6.14566819709495    6.50540853800037
H          -3.16652109810979   -5.47973487062001    8.20491748540338
H          -3.64735638487331   -9.48742209423662    5.20917701861450
H          -7.54860236876165  -10.02674115309896    3.36937881140772
H          -3.81704759161284  -11.45636873842306    3.51845685103524
H          -6.43526022070513  -11.40846751998105    1.92335918069229
H          -5.46232613141903  -14.14480934541747    3.52365207327318
H          -1.44204637296056  -14.90450379265468    3.62511107984863
H          -0.52894834393002  -15.65693146701496    1.46201264857921
H          -0.85351280904002  -15.84934918785917   -0.73061576497128
H          -3.14776314761875  -16.27072422616587   -2.22837916881576
H          -5.85537521523567  -12.93183206777634   -2.83962983207270
H          -4.84585899993074  -15.77312927334351   -6.85299718828919
H          -2.10382975184250  -19.08216514528623   -6.22776935315725
H          -4.18007429766038  -17.07846250326822   -8.99486585988354
H          -2.48167196863634  -19.56963412614692   -8.45379192360508
H          -2.94538431083299  -20.08354799740328  -10.73174190967016
H          -3.78891553232735  -14.00274365791002  -12.21230816917208
H          -4.93976092858457  -13.56963804441375  -14.34223480844093
H          -5.50946568844920  -15.41657238631931  -15.85848709975334
H          -4.96106648993293  -17.73612052791378  -15.27921239313195
