132
 SCF done       -249.591230599064          0.000498860426
C         -12.34595282429657  -12.82714657359027   11.51289834495412
C         -11.58229368722964  -12.50995554233422   12.62741781508657
C         -10.73339270537638  -11.41301054590160   12.62673310229794
C         -10.63457824135691  -10.58867502990628   11.51521440425691
C         -11.39783738806875  -10.89216378392016   10.40139746807675
C         -12.24784731593451  -12.02094477852996   10.39067937499304
C         -12.87511998691133  -12.12505448011594    9.07792170436218
C         -13.82331149404281  -13.04896968461562    8.71837361195299
C         -14.35909224908441  -14.01479153937206    9.59614638986577
N         -14.84771634835514  -14.82261093148212   10.24940163948269
C         -14.42980593545452  -13.16164979094921    7.45085143624749
N         -14.96441929533545  -13.32141678446373    6.44631048896726
C         -12.27797113787259  -11.09434306511382    8.24305467328615
C         -11.51865293082129  -10.21751397096510    9.11843159435767
C         -11.18789043635021   -8.90712345493177    8.87821713271675
C         -11.55912093792673   -8.19298356500496    7.72390219514312
N         -11.87185104758446   -7.55231574892930    6.82304935648744
C         -10.50401726721116   -8.08531033515862    9.79648135074447
N          -9.93724480445240   -7.36423356020935   10.48667218765326
C         -12.39797566069759  -11.04384338156159    6.87051402523540
C         -11.57321970642481  -10.40239140150572    5.93993224999829
S         -12.21618472785442  -10.01933228807327    4.37552139811231
C         -10.78083349319222   -9.20236480214697    3.85795947981140
C          -9.76987227615833   -9.31757026960601    4.83457435003817
C         -10.21574896261261  -10.00470953217423    6.00665849281124
C          -9.30735226359671  -10.29337311829172    7.02206262666481
C          -7.99804346652849   -9.83876953234009    6.94532783500128
C          -7.14821266031240  -10.14012625991030    8.09300625464487
O          -7.52280973938792  -10.66817328396040    9.11212644281350
C          -5.64858609311157   -9.74205094891708    7.97587778372043
F          -5.48121698808263   -8.41743033338531    7.82948433473992
F          -4.96242025307384  -10.10906450228916    9.05390767657834
F          -5.05810722026583  -10.32492682362114    6.91566740410974
C          -7.56285844308806   -9.14674571788493    5.79199565588695
C          -8.42153446309474   -8.92308596286684    4.75105849929786
C         -10.80491369967220   -8.56359211144311    2.59641046079967
C          -9.97865827577082   -7.57098988768582    2.17684228503501
C          -9.96632811323492   -6.96824534435525    0.87638848188510
C         -10.76715309114847   -7.39680529801732   -0.16552935558529
C         -10.65614274037545   -6.81238203974803   -1.43829314077824
C         -11.30907647016291   -7.08619391874156   -2.63652663271200
C         -12.37380513803491   -8.08987321272945   -2.91356410377362
C         -11.87516097975479   -9.52658400797296   -2.64478531424289
N         -12.59671440534697  -10.44479658444721   -3.49994371459238
C         -13.65546356586057   -7.77526343548797   -2.11747417514980
N         -14.71754741807632   -8.70135086103638   -2.47827177673808
C         -10.72691517077871   -6.21262482531048   -3.62974382423931
C         -10.95113572061803   -6.10941422905053   -4.95139472982326
C         -10.18087668783282   -5.15056395493259   -5.80155678824078
C          -9.18649768705433   -4.31836415904622   -5.05941140075535
C          -8.97315394671095   -4.44121143376969   -3.73708160523164
C          -9.71187279173593   -5.37843180113650   -2.97368356949329
C          -9.67931787072899   -5.74754455026943   -1.64631747824430
C          -8.89525404871259   -5.30074415734324   -0.55600740397055
C          -9.03934356367967   -5.89154491110020    0.65424033639712
C         -11.17870888797148   -4.36902871830041   -6.61270343067438
C         -11.24930556802874   -3.03827936796573   -6.71135989633960
C         -12.27906193758941   -2.37323764223425   -7.45982935023327
S         -11.95164010330512   -0.97508791123513   -8.39716195878180
C         -13.57357136210932   -0.90336679902893   -9.03720411154904
C         -14.35874719272010   -1.92891646665784   -8.49060027690885
C         -13.62526211022837   -2.75540474107874   -7.58171054375130
C         -14.27373754531983   -3.76852029720724   -6.86473584476461
C         -15.60760547727862   -4.02790558425863   -7.11396941830575
C         -16.34767852334985   -5.08362782283213   -6.43598445549585
O         -17.51405377653163   -5.34463186752946   -6.59254374638817
C         -15.53293852254131   -5.95477038400285   -5.43040849711053
F         -15.06166867111498   -5.23948095869977   -4.39307658852548
F         -16.27312033950468   -6.93400330865880   -4.91821392791314
F         -14.46005007405081   -6.54179374601234   -5.99941243056025
C         -16.31791703539303   -3.24454983227943   -8.06834853587165
C         -15.72146497279414   -2.21138554470658   -8.72487815269433
C         -13.95960366477011    0.08131789710598   -9.96074930086838
C         -13.13237535078390    1.04995035057024  -10.45187631683562
C         -13.57524510516846    2.01792334216656  -11.36876013410596
C         -12.86971958727328    3.10825660966343  -11.81151640428434
C         -13.16989406177280    3.85119884558093  -13.02790635406133
C         -14.34323773527244    3.84665141191231  -13.73496449457850
C         -15.51015382274831    3.14005254360287  -13.37578741556683
N         -16.49400064061006    2.59541319457383  -13.14238817799969
C         -14.55890233136861    4.58720338571599  -14.91678584932084
N         -14.80244337450006    5.15875879565051  -15.88182861763429
C         -11.97062782407239    4.60770309473858  -13.36460570161639
C         -11.02386761716076    4.44929969818055  -12.32682624478925
C          -9.77970502719608    5.05203363626013  -12.40962233959493
C          -9.48562613489487    5.81399176923282  -13.53069507422770
C         -10.41685874088467    5.97813149492726  -14.54588083733156
C         -11.66620050145506    5.37968339817963  -14.47448328351205
C         -11.62270319327447    3.63497229374005  -11.27914995437020
C         -11.19887938350753    3.57659766538838   -9.97662405091476
C          -9.98482462000439    4.13149381257140   -9.51990155911741
N          -9.00035141773184    4.53607142527571   -9.09032914733785
C         -11.95864824504614    3.06279208777129   -8.90414696449437
N         -12.54008212996710    2.70606759965216   -7.98060934062458
H         -12.99139526780243  -13.68973894209905   11.53024697654960
H         -11.64665361188288  -13.13545307891918   13.50470949891243
H         -10.13718774482536  -11.19718104846889   13.49988962027373
H          -9.96066115971269   -9.74787198107079   11.51850867204137
H         -13.22087355635220  -11.59457798201970    6.43311837348615
H          -9.58709115062582  -10.90010554984942    7.86883509568245
H          -6.54328941852173   -8.81020791932044    5.70716966419341
H          -8.05015777964333   -8.46820533932454    3.84837108304942
H         -11.61066105518547   -8.88801356211140    1.95105675569897
H          -9.26693011257280   -7.16109463130982    2.87883580140676
H         -11.46835406272081   -8.20117181638281   -0.01577981365565
H         -12.62798137307650   -8.05404293970027   -3.97726475834216
H         -11.97998839309605   -9.75173163085049   -1.57194492284911
H         -10.81116075241279   -9.58978283741488   -2.89835475185831
H         -13.58538290658143  -10.39240339198956   -3.26986426188339
H         -12.27878897394152  -11.39654367015922   -3.35586553735444
H         -13.91896452460624   -6.71822892062147   -2.29227640328048
H         -13.46342466779465   -7.89164496691925   -1.04833219520259
H         -15.02167184124628   -8.53419206300383   -3.43216545300472
H         -15.52290783016932   -8.56309635807390   -1.87753513493666
H         -11.69032259511361   -6.71602734797831   -5.45680526620238
H          -9.62201371397215   -5.76874181176548   -6.52800927490209
H          -8.60774481656721   -3.62816290366905   -5.65394101519206
H          -8.22955859556761   -3.83417763681020   -3.24194723488998
H          -8.18609911436900   -4.49990298081421   -0.70352631123042
H          -8.44256812964513   -5.56208957593842    1.49241463082959
H         -11.88516667039295   -4.98415495434681   -7.15436217432107
H         -10.49782970682138   -2.40686550924519   -6.25885141728248
H         -13.71545863067891   -4.29363322667108   -6.10846457945705
H         -17.35610964491857   -3.48584254323915   -8.23425428735635
H         -16.28510194358457   -1.60597290930598   -9.41644613753877
H         -14.99622167533995    0.07709705687396  -10.27023201453580
H         -12.09517744012595    1.04608208565960  -10.14546324395044
H         -14.54197441715107    1.83221752786400  -11.81611695422813
H          -9.04517775258011    4.92802578743381  -11.63059099000875
H          -8.51758061528820    6.28411422064880  -13.61165704916405
H         -10.16758411438983    6.57768099646749  -15.40790330580754
H         -12.37522779484556    5.51538104186176  -15.27435828642645
