120
 SCF done       -223.952510132854          0.000494780337
C         -10.21003903593827   -0.25280241770564   11.25966737773877
C          -9.56693357611246   -0.11149992402949   12.48096010985180
C          -8.23712762429462   -0.47471648681964   12.63837687848114
C          -7.50339629877628   -0.97560888883121   11.57262695342685
C          -8.13350084283513   -1.11099164536164   10.34815311106833
C          -9.49342893999804   -0.76285913721741   10.18867176287353
C          -9.89602028533638   -1.05766455748814    8.81913213882440
C         -11.10235145177173   -0.74198852815939    8.25289661569936
C         -12.13795138435271   -0.06163055297887    8.92882814958846
N         -13.02157775301113    0.48839347240050    9.41260023756845
C         -11.47777132633316   -1.00218780084969    6.91835264053124
N         -11.85202669264768   -1.17751119198896    5.84671500827648
C          -8.77253895663467   -1.74500800512626    8.18972986178783
C          -7.62589181988825   -1.57295705808809    9.06568809533579
C          -6.30585343243648   -1.57209190201846    8.69920629864347
C          -5.84643003916903   -1.75711054629648    7.38169616459759
N          -5.42366531243001   -1.89899143990127    6.32302330218829
C          -5.24016642350480   -1.27550992447256    9.57620771170816
N          -4.32144127677774   -1.03465787404272   10.21959435166968
C          -8.87365336863239   -2.48961693802412    7.04161679942516
C          -8.00340115664885   -3.49675220599720    6.59498761534031
S          -8.10083696506794   -4.10041093889683    4.94837360057979
C          -6.82294584315467   -5.26599321229031    5.14271204141703
C          -6.36683877876239   -5.22744881392788    6.47065121669107
C          -7.02881925749755   -4.23935543446652    7.24718307826735
O          -6.58284927678247   -4.24019528674808    8.51367836522567
C          -5.63031293885007   -5.21449337339942    8.56176020498432
N          -4.98584090662555   -5.42821396586180    9.79776671504201
O          -4.14638067236913   -6.30965359832981    9.82852107839857
O          -5.31660861210939   -4.72788302882208   10.73270955755865
C          -5.45282778004074   -5.84538179792007    7.35647735520459
C          -6.38863008398126   -6.00942217856812    4.02968754358377
C          -5.33519205692816   -6.87104040637101    4.04322137336554
C          -4.78457747586908   -7.56298193910975    2.92123065889990
C          -3.61905919837501   -8.28811404600208    3.11188015187392
C          -2.96273004574819   -8.88360521686215    2.02351481742617
C          -1.76169892019086   -9.58418287170394    1.93918864861865
C          -0.82034912019791   -9.99112712997424    3.01498021600403
C           0.09653345678559   -8.82244730994331    3.45560088223891
N          -0.68362736931551   -7.71131217994263    3.96200924360947
C          -1.50825043265160  -10.58096909284409    4.26042567401270
N          -0.54655139513460  -11.39790677625585    4.97919717706846
C          -1.53422026338178   -9.84142907053823    0.53462531725724
C          -0.49065577226475  -10.40270765564657   -0.10471394856222
C          -0.42359407608561  -10.45096607606911   -1.58916526437963
C          -1.66715304148793   -9.98163606020615   -2.28864670372041
C          -2.71042123136700   -9.44582944697506   -1.63138934972420
C          -2.67780085574057   -9.31340184833884   -0.22149110858155
C          -3.53622813512366   -8.73640910988646    0.68958433927428
C          -4.76555944586742   -8.05247931801476    0.53212146222572
C          -5.36453024902711   -7.48845081338899    1.60874189424366
C          -0.02978448531462  -11.79015368014138   -2.14323658751477
C          -0.15156169095636  -12.95358357832516   -1.49252760377290
C           0.24385834331042  -14.19836405957354   -2.07360175269607
S           0.14496177004273  -15.70485758070140   -1.20369946438739
C           0.82679049312358  -16.65988065658778   -2.50212804941931
C           1.10964900497029  -15.81323062814524   -3.57874397605943
C           0.77961924953439  -14.45526500659256   -3.32089366546341
O           1.07631703250599  -13.68040858242732   -4.38448908847504
C           1.59133755294041  -14.53035815599280   -5.31440642148671
N           1.99102012326044  -13.97300969073671   -6.55348218582647
O           2.44422925643638  -14.74559858827368   -7.37489436067476
O           1.85046408706665  -12.77779312123881   -6.70216172752942
C           1.64004590290266  -15.83366327763944   -4.89115911917295
C           1.07444703224276  -18.03521051275333   -2.40048701370602
C           0.80724600786163  -18.78982329962823   -1.29365855392559
C           1.13102433982137  -20.15490885154325   -1.22386161164515
C           1.05972297536056  -20.95600817970077   -0.11242532201947
C           1.03914164366064  -22.41260001568768   -0.14020644923772
C           1.44868134621472  -23.22730809778474   -1.16196038170890
C           2.01880954639098  -22.78777700852306   -2.37557821749743
N           2.49232439141418  -22.50023072978611   -3.38131194777045
C           1.39559754272660  -24.63711668952448   -1.12025867797110
N           1.37932443936008  -25.78403635446105   -1.15441956802214
C           0.50106591266510  -22.84877035700953    1.14189821339560
C           0.33679932033462  -21.71949464593680    1.97655568890922
C          -0.18037108301686  -21.85648192585052    3.25399393570137
C          -0.53098609837086  -23.12416279528772    3.69446956787864
C          -0.36187099710025  -24.23461769209116    2.88007640324568
C           0.15524985901590  -24.11042539176808    1.59890916587401
C           0.82338434488642  -20.54710178191208    1.26379151269883
C           1.19892628445657  -19.36240050795185    1.84215061455712
C           0.94470688677201  -19.02962295560263    3.18937448360995
N           0.74058570334023  -18.68278192221485    4.26432431888432
C           1.98274258551707  -18.37090040001790    1.21356881664008
N           2.66301298474336  -17.55150162796384    0.78478950300222
H         -11.24678574112889    0.02396407360835   11.16095911718097
H         -10.11679345063075    0.28029413944803   13.32309959842307
H          -7.76477081625366   -0.36970767940987   13.60300387896851
H          -6.47580323948097   -1.27183925730491   11.70681420854625
H          -9.75170170541242   -2.35082893867970    6.42576810163009
H          -4.75746896128557   -6.63969391045436    7.18171795275641
H          -6.93094081332269   -5.81987006766287    3.11482612473971
H          -4.81254792791220   -7.01999382820170    4.97695334442494
H          -3.17647690031194   -8.34494609416427    4.09300694016940
H          -0.15835709801352  -10.76692407846147    2.61539368194068
H           0.74526910048315   -8.54920388399971    2.60762173010639
H           0.71984905015512   -9.20522897119666    4.26579492237635
H          -1.07980618597210   -7.16964884498339    3.20197216187741
H          -0.11262378069372   -7.09614556124161    4.52775131062037
H          -2.41305328099193  -11.13103723369869    3.95253835968843
H          -1.80244058686321   -9.76501814132463    4.92036938352689
H          -0.36514459538045  -12.26521514978861    4.48498827053070
H          -0.89005825395153  -11.63179232835304    5.90282687106414
H           0.36707939227891  -10.79242659585876    0.42699757225308
H           0.38430237057068   -9.75327697052885   -1.87603734620071
H          -1.67091005149571  -10.08373425375691   -3.36244549710068
H          -3.58019685640166   -9.10043769392229   -2.17054870721694
H          -5.20643310192216   -7.97600117411070   -0.45069893585550
H          -6.29743586886656   -6.96270483783932    1.48449423260454
H           0.34218732444122  -11.77975740086022   -3.15756172529031
H          -0.54098805713562  -12.99684790065671   -0.48528846158666
H           2.00787306165415  -16.66334633609470   -5.45862076240139
H           1.55654798822078  -18.49629881734726   -3.25285128828913
H           0.31383566561819  -18.31318335120357   -0.45783363254315
H           1.40492596838463  -20.62096688665266   -2.16037448387271
H          -0.32143659252369  -21.00131924343485    3.89480889608178
H          -0.94118463717384  -23.24513608300025    4.68528916880008
H          -0.63865494688911  -25.21185342062679    3.24476345719323
H           0.27631566071272  -24.98348337881965    0.97915365360811
