114
 SCF done       -204.382849321762          0.002359400879
C          -5.99456107191011   -0.85177721915623    6.80547241409626
C          -5.08069004569756    0.19004075549202    6.75921853919770
C          -4.55737669205294    0.63211606588559    5.55165328312609
C          -4.93742708850001    0.04793818776200    4.35323657579164
C          -5.84982692813376   -0.99438716898415    4.38617191915528
C          -6.37989014439280   -1.45061886642130    5.61561220503749
C          -7.29933653640079   -2.54895841343593    5.35737739770935
C          -8.12284634864798   -3.14614751693044    6.26700641438354
C          -8.18770024121912   -2.78430894476886    7.63174735224846
N          -8.28740538967998   -2.53990363361013    8.74808874638223
C          -9.05230938823941   -4.17041503081381    5.97641645253510
N          -9.83160584520846   -4.99610306396328    5.81019331088260
C          -7.17001144163739   -2.87504333217643    3.93220074934844
C          -6.45587313120735   -1.75900965027070    3.31090133494634
C          -6.53444458576556   -1.38232298508257    1.99922596374182
C          -7.39352543398039   -1.98964309862092    1.05758119964319
N          -8.11182796578848   -2.42728373237152    0.27696539141420
C          -5.81254220313712   -0.30459547390791    1.44355074432355
N          -5.21785276889170    0.53000239819773    0.92830812920975
C          -7.53125357442220   -4.06165491703205    3.38261310908920
C          -7.15508707198053   -4.59635110493460    2.09929801209599
C          -7.99046790816157   -5.41166689129650    1.40796331151756
C          -7.73055697312171   -5.92046077740472    0.10220439072096
C          -8.63191320210360   -6.79502708249752   -0.49727678631685
C          -8.38256949794851   -7.34205539964456   -1.76535527267875
N          -8.14938952147398   -7.79429877502008   -2.79620956199012
C          -9.80811809197498   -7.22233029642900    0.13764787219697
N         -10.76964729073866   -7.57745953384193    0.65672716634339
C          -6.56899366177276   -5.50597420713519   -0.61301364503794
C          -5.53792170888053   -4.78054521532355   -0.11814075930784
S          -5.52473370062744   -4.23747301592027    1.55065567570899
C          -4.36359214531131   -4.41027744652162   -0.89121988477787
C          -3.98761250539954   -5.15452317991293   -1.98736961707275
C          -2.84234083507235   -4.80350425086568   -2.72649070100615
C          -2.25934233637529   -5.37210703074077   -3.85456402888963
C          -2.73921865537815   -6.44303519135332   -4.76719497741121
C          -3.41004785409972   -7.63882309081732   -4.07234879648455
N          -3.17797338062551   -8.83649981130128   -4.86212591816116
C          -3.69031830240240   -5.82121607515395   -5.82575132730020
N          -3.01794385449406   -4.76979539073116   -6.56529771619158
C          -1.09590531941425   -4.57128291390384   -4.16097823051560
C          -0.18462255029476   -4.69391220828429   -5.14425100133026
C           0.84483046704336   -3.63974290415482   -5.36455736647816
C           0.93589985226686   -2.61240838918982   -4.27919480427937
C           0.05259355675622   -2.54772424508398   -3.26476202135040
C          -1.00060506183066   -3.48916682096012   -3.17670774367001
C          -2.05963078697093   -3.64735737669942   -2.30222948329846
C          -2.47128590625437   -2.90221964050389   -1.17608509081118
C          -3.58532140589365   -3.27580571147735   -0.49695361036683
C           0.36684203895496   -2.96269047431322   -6.62616593533144
C           1.05927107945559   -2.87085070824651   -7.75848426688324
C           0.50298429137286   -2.25972189482977   -8.95238916216134
C          -0.80211011675138   -2.35419468162877   -9.28681686633315
C          -1.41288577533828   -1.75420131621793  -10.43004225455113
C          -2.75335307193019   -2.00312680155410  -10.70212140184842
C          -3.42121003171975   -1.43806456915735  -11.80088478218816
N          -3.96968405324269   -0.98249166561947  -12.70115666105508
C          -3.51474615475989   -2.85171632021341   -9.88629297863460
N          -4.12366186265645   -3.54973564121314   -9.20448690450741
C          -0.66318430209341   -0.86852025758487  -11.25689916737294
C           0.64793618535597   -0.55951062942997  -11.08570259858906
S           1.67202456348824   -1.39907709550159   -9.92732684094483
C           1.29336723387103    0.42738850820158  -11.91102809995161
C           2.28268114382370    1.28912706759378  -11.56059602679009
C           3.10933251527659    2.03160848896154  -12.51814104241310
C           2.81837780905220    2.29723372809170  -13.82560314429338
C           1.62660372340562    1.92946603332593  -14.48910797022417
N           0.68385385652048    1.66868835165725  -15.08881242941549
C           3.66582950167438    3.02593154640555  -14.69027988736121
N           4.30551412796205    3.61013756465608  -15.44224491591447
C           4.30469219216421    2.44871134891753  -11.80003321363343
C           4.14678101965702    2.14305921718067  -10.42832271052909
C           5.15293386349084    2.43014678097909   -9.52024293809310
C           6.31534822953073    3.02499257988047   -9.98688398968225
C           6.46955603541664    3.33261508182912  -11.33151208726511
C           5.47011065858528    3.04929479803423  -12.25052332204884
C           2.82674790524025    1.56936131242246  -10.23202422397329
C           2.14465800111949    1.52341075919134   -9.04710047869257
C           2.71979029215524    1.81699159812294   -7.79221065635540
N           3.13219675704764    2.00735176676076   -6.73800503685596
C           0.76710235995074    1.24349919971893   -8.92728599001483
N          -0.35600967913516    1.05812543145172   -8.77698173661713
H          -6.38648494233728   -1.18449291186329    7.75233946753563
H          -4.77152758775933    0.66164711087430    7.67925448976176
H          -3.84404680195107    1.44181480141585    5.54307969776354
H          -4.52044618518683    0.39503024427481    3.42180877160593
H          -8.13995321361340   -4.72968229085165    3.97813779814895
H          -8.95579655524607   -5.63635963243952    1.84414767179758
H          -6.53267495871289   -5.78723051914231   -1.65630667858878
H          -4.54753621991212   -6.03029223824414   -2.26906708030977
H          -1.87678811441601   -6.84211630420034   -5.30827051429282
H          -4.48092709355369   -7.43140656702410   -3.91508777004311
H          -2.94098753155784   -7.79851285551875   -3.09752830941564
H          -3.65264231962138   -8.76769199765922   -5.75601109324916
H          -3.54639252327386   -9.65116854273441   -4.38446020736345
H          -4.60013276600847   -5.47677981312963   -5.30895572502580
H          -3.97271900263119   -6.60106454571769   -6.53586196140898
H          -2.98564315683983   -3.92009096649748   -6.01079487999013
H          -3.52156455538066   -4.55973675334982   -7.42311538777678
H          -0.22284198920535   -5.49486517369118   -5.86717605224510
H           1.82737518456356   -4.08708708122757   -5.55135519213576
H           1.73157530100789   -1.89070972825200   -4.37893190311053
H           0.13787400898477   -1.78116903333958   -2.50880438961550
H          -1.90166789932402   -2.03876488606752   -0.86795165895765
H          -3.91235950826543   -2.69784313190196    0.35512924264173
H          -0.62740672234350   -2.54568014075853   -6.55777524214718
H           2.08291513768845   -3.21543065420345   -7.82342089118534
H          -1.43942761192491   -2.94593533017504   -8.64361771787069
H          -1.20381704538350   -0.34220909320152  -12.03377893384612
H           0.95333117918992    0.43785977254844  -12.93818853480037
H           5.04657081530857    2.18950391125607   -8.47500856772058
H           7.10996171300941    3.25042711152374   -9.29243301672398
H           7.38186783842330    3.79775948466438  -11.67154597056987
H           5.61007526647976    3.29065826398947  -13.29115905760789
