107
 SCF done       -215.029204220019          0.000868912653
C          -1.99618872251624    2.16727234090507    2.51563237403984
C          -2.35106479734483    2.42181515732501    1.19930169904256
C          -3.16944852561424    1.54921581316031    0.49550603381619
C          -3.66536540328770    0.39936540224640    1.09133093836732
C          -3.32051765121770    0.13637449328037    2.40676840521597
C          -2.47773195230938    1.01742124231082    3.12205345530784
C          -2.26193563976453    0.48036035736993    4.45878313042800
C          -1.63199187845312    1.12067558348818    5.49125121268666
C          -1.08499537367172    2.41911656477390    5.39781145298307
N          -0.62137198369691    3.46863981072529    5.39218639448478
C          -1.48018755971633    0.61438882401197    6.80021746038487
N          -1.32538603574932    0.27549058324250    7.88613116243556
C          -2.85128261698031   -0.85623750975888    4.47444974640583
C          -3.69728903348582   -0.95805684254634    3.28800345085788
C          -4.80436155986446   -1.74684596721481    3.14104311301427
C          -5.29853874942336   -2.63095931163222    4.12405737676326
N          -5.78816547711299   -3.33126346281277    4.89001857397451
C          -5.65075621586247   -1.70623015251277    2.01179893464433
N          -6.37089733435010   -1.71965351081597    1.11892354728109
C          -2.54269017514775   -1.82346547431617    5.38946758051772
C          -2.73007432883481   -3.22125875992803    5.28156388722273
C          -2.85347332791454   -3.99788834761302    4.14705099601955
C          -2.97018136529768   -5.36287636317177    4.53140597846546
C          -2.88352805537614   -5.36193037364548    5.99348271907554
C          -2.72019108771918   -4.11000095197664    6.44673999277343
F          -2.94923964258308   -6.47554565735786    6.72756136368477
C          -3.17173498485613   -6.45294027607256    3.71305023191472
C          -3.34525097897830   -7.81164402385503    4.07701350614624
C          -3.54239144896218   -8.57041071625073    2.93149768064750
C          -3.49109390740047   -7.66742887866855    1.77395998720386
C          -3.27742050862813   -6.43212554596689    2.24679327369370
F          -3.16680728316834   -5.31472237199903    1.52218429026588
C          -3.76037872520036   -9.95722416045638    2.90553296571132
C          -3.93082489979248  -10.68519194490962    1.75725868956263
C          -4.15719352754426  -12.07489911080335    1.68691880153931
C          -4.28952438141429  -12.69514443502493    0.40954996266620
C          -4.55643358296193  -14.09738276896918    0.25032783586622
N          -4.54318946398424  -14.62843639868071   -0.97927238403976
C          -4.37642191775503  -13.85746686903347   -2.02463960057295
C          -4.23278511353409  -12.44229415255727   -1.86848844931964
N          -4.16395714304685  -11.91291524280053   -0.67174799977444
C          -4.12817669136551  -11.59833084998770   -3.00314251528097
N          -4.04634522809016  -10.93739008386242   -3.93471225493486
C          -4.31764987176457  -14.44078484513564   -3.31643123156276
N          -4.26607032556755  -14.86960980221351   -4.37688370268407
C          -4.77546033268265  -14.95890644861879    1.36639391652801
C          -4.59020051183019  -14.35315668329839    2.63613487829384
C          -4.28806539793421  -12.94815425140895    2.79505853412214
N          -4.18312720102580  -12.61113257563264    4.08007186160732
S          -4.43521481451386  -13.90508368244690    4.99385355416157
N          -4.69518502032915  -14.96056877325589    3.81910992748984
C          -5.15017673439127  -16.31737849216747    1.21401946449200
C          -5.63813954635628  -16.93394473589896    0.07170810922300
C          -5.87754572445872  -18.30677388275657    0.34758388587605
C          -5.50362155951637  -18.48718816978253    1.75408304579808
C          -5.09109753082443  -17.32463845484460    2.27985993730861
F          -5.58722021922788  -19.65948314176084    2.39006766046694
C          -6.36046783046442  -19.27001381928223   -0.51013677810304
C          -6.56331699466983  -20.65451958562954   -0.25810535640411
C          -7.04591745087114  -21.25679882467634   -1.40499536898539
C          -7.17882120939793  -20.22927861880842   -2.44334204867623
C          -6.76864862859891  -19.07099592064511   -1.90705703308567
F          -6.74152246325637  -17.88195921212374   -2.51161030200117
C          -7.31415436295937  -22.63381359395810   -1.54843934818763
C          -7.83887624954922  -23.21568413677624   -2.66459672552882
C          -8.12551869882843  -24.59490507468153   -2.81146518741720
C          -7.51663626991201  -25.65894526109199   -2.20507206918061
C          -8.11088814521218  -26.98730397409266   -2.07507847331776
C          -9.16114277543220  -27.50123630074954   -2.78595961132798
C          -9.84992895730915  -26.84539676885540   -3.82929746393682
N         -10.45372277032580  -26.38356905339668   -4.68967751178371
C          -9.67950227472138  -28.80162154614236   -2.59966197713531
N         -10.15049513611032  -29.84330105355335   -2.50122633655823
C          -7.36702747922743  -27.67878167492903   -1.03043589900476
C          -6.25750789941664  -26.88618642063051   -0.65792296083405
C          -5.39176509077652  -27.30560569149729    0.33881895795747
C          -5.63582114378770  -28.52210377320285    0.95797896999582
C          -6.71868213546170  -29.30695911320554    0.58689328237269
C          -7.59406087595652  -28.89610274068798   -0.40718016272201
C          -6.24260108008089  -25.69426690738264   -1.49183595249028
C          -5.14253207734017  -24.92285304256970   -1.75113320897195
C          -3.90421190150019  -25.07705539271873   -1.09251197599627
N          -2.88131834608525  -25.14738137559236   -0.57740562036330
C          -5.07711080982405  -23.93874655625549   -2.76039503305705
N          -4.94164346908767  -23.16194274723490   -3.59372797823680
H          -1.35272275433713    2.85195531601821    3.04304497510421
H          -1.97832978190508    3.31149057507505    0.71538924952262
H          -3.42308473448590    1.76475323880655   -0.53100853815953
H          -4.29153470543150   -0.27671299514916    0.53219541125341
H          -2.03043696589796   -1.50961690680691    6.29022237375225
H          -2.82265662972256   -3.65242670286005    3.13222744277967
H          -2.63336613605540   -3.78241039501049    7.46394021679324
H          -3.33054586648506   -8.18870174795100    5.08085681318786
H          -3.61063614261078   -7.95088559450383    0.74742383781861
H          -3.79187865288648  -10.46882755875676    3.85755711855398
H          -3.88964317464222  -10.18906880765408    0.79806206080393
H          -5.82251001419662  -16.46079846403828   -0.87062688096038
H          -4.75948221806329  -17.13591609263189    3.28017452606748
H          -6.35727555105277  -21.14794666427809    0.67187852621124
H          -7.52074994190320  -20.38915489651042   -3.44576782572895
H          -7.10165457846252  -23.24785206593097   -0.68087012491879
H          -8.16674050739626  -22.58022632671619   -3.47493487854357
H          -8.97133035814393  -24.81383879838605   -3.45079571317122
H          -4.55244346156771  -26.70056352745643    0.64100316592195
H          -4.97356169177347  -28.85999856734272    1.74012252130427
H          -6.88771515555413  -30.25137877076894    1.08090635817332
H          -8.43306938068641  -29.51603778508855   -0.67646630490933
