114
 SCF done       -223.687492271826          0.000852250284
C          -8.30476795170532   -4.33245846307426   14.11335340871523
C          -7.53674009000947   -4.85390053209649   15.14414273999953
C          -6.46505035542661   -5.69591341969291   14.88443622048733
C          -6.12503309419491   -6.03600541091451   13.58346709862517
C          -6.88543439760755   -5.52225022410231   12.54654454761654
C          -7.98289639869224   -4.67039298745937   12.80834315009709
C          -8.60762455436394   -4.30137197101858   11.54336262359706
C          -9.63377124982617   -3.40836944476848   11.38369603642643
C         -10.23567298481137   -2.69748223075231   12.44393857039852
N         -10.76807195485595   -2.08617956204764   13.25650505928461
C         -10.21201719985712   -3.03704429305688   10.15128329992702
N         -10.73170644568853   -2.68218090085798    9.19096154601655
C          -7.94222812697439   -5.07712100917281   10.50558881561641
C          -6.75741118966930   -5.67069168871914   11.10549002476273
C          -5.62554331015167   -6.04961585479604   10.43155080683976
C          -5.42553726471070   -5.85231663532774    9.04776827246357
N          -5.17082579868531   -5.62475095003242    7.95189165817672
C          -4.47820454102842   -6.57302035642263   11.06211910252531
N          -3.52872491474218   -7.02052782210384   11.52636577764887
C          -8.40916067503958   -5.27623846874877    9.23129771613189
C          -8.06588725909171   -6.33342204517329    8.36291966914794
C          -8.23745569382394   -6.32291416058967    6.98997084848862
C          -7.77977111163616   -7.55679940471598    6.45495904124442
C          -7.38392762354024   -8.35439465359535    7.61375231399618
C          -7.53581841902869   -7.64594066128269    8.74491808091590
F          -6.95614300853562   -9.61704680250671    7.52974317613803
C          -7.68918905584814   -7.93325119946527    5.12872013903125
C          -7.18457375507294   -9.13995101319570    4.59371511954894
C          -7.24608708604838   -9.08227705210791    3.20579350142767
C          -7.82294073328900   -7.78603939238199    2.83156393426620
C          -8.08277420889473   -7.12224463869559    3.96569696536533
F          -8.62355377320640   -5.90701076235044    4.06817663096073
C          -6.84467259004443  -10.03907417424889    2.26299647583647
C          -6.35354460289434  -11.28244200607246    2.58029215596369
C          -5.91661865768009  -12.21427758316173    1.63310218036575
S          -5.80539936837994  -11.73080766871618   -0.03312108733895
C          -5.13862371227386  -13.24233029273727   -0.55047148292635
C          -4.92553171781721  -14.08588451079810    0.56552822173582
C          -5.43359808312555  -13.54192818043584    1.78706051155600
C          -5.39810200812660  -14.35076383079174    2.94940915143059
C          -6.08608103157462  -13.98980861180861    4.23455320453196
F          -7.34388316820416  -13.54928723613265    4.04925063794373
F          -6.19079283852946  -15.03695179429829    5.06390794942843
F          -5.44389282176884  -13.03632249127744    4.94009961097444
C          -4.74028915742866  -15.56045457485810    2.90898689644121
C          -4.09199332993996  -16.00743250472465    1.76188220208434
C          -4.17253606448557  -15.29428343066454    0.58208071010297
O          -3.54972857355873  -15.64453008134697   -0.55508478341405
C          -2.72989341158065  -16.79404413945115   -0.57451662827113
C          -4.97107390269260  -13.40044374342304   -1.93854150859821
C          -4.96611906025759  -14.56798282174699   -2.65151049970279
C          -4.78619124338375  -14.64972347619234   -4.04264037858329
C          -4.82541237298551  -15.82264599487732   -4.78282685543382
C          -4.54405562180440  -15.53117073073694   -6.13874382509114
C          -4.33846740428940  -14.07828334778064   -6.18242257494921
C          -4.48480526735349  -13.54639794735703   -4.96022531060512
F          -4.05537391145749  -13.40998105213495   -7.30556024333564
C          -4.45765074166777  -16.40433570340024   -7.20555092432709
C          -4.11237422730705  -16.11868005165775   -8.55238619492160
C          -4.12814805806481  -17.29401747395453   -9.28410118922705
C          -4.51204528630449  -18.38573982168196   -8.38689032743283
C          -4.69269742906055  -17.84948391033047   -7.17021986313290
F          -5.04615519912303  -18.50644508170439   -6.05864962050859
C          -3.76737698892323  -17.41040242998504  -10.64029861381877
C          -3.84308688165292  -18.55619926894737  -11.37920009703257
C          -3.47281571014319  -18.67351862766531  -12.73813131255039
C          -2.53903144574470  -17.94270384810613  -13.42560107738984
C          -2.50085182801626  -17.80429826589230  -14.87718291565785
C          -3.14787766287722  -18.57605477110130  -15.80540329031250
C          -3.95291255845876  -19.70104258104294  -15.52720936371583
N          -4.61809047605707  -20.62649264675805  -15.38625388356501
C          -3.06153677721107  -18.37372206806400  -17.19980159410570
N          -3.03630944327683  -18.26970734527724  -18.34252395565061
C          -1.63791470006847  -16.66654204601127  -15.16921470717100
C          -1.04231294830504  -16.22449440506350  -13.96633911433843
C          -0.18898901345758  -15.13349975987578  -13.95910527867623
C           0.07185823639202  -14.48948096601988  -15.15915087199259
C          -0.50286879011186  -14.92846706804447  -16.34342612815649
C          -1.36176275138392  -16.01728034341635  -16.36234854813679
C          -1.47260096925993  -17.10393699581974  -12.88992225256486
C          -0.80798950962242  -17.28398589882442  -11.70596196298455
C           0.28764998731881  -16.49796169190734  -11.29266356670511
N           1.17036318156554  -15.88131257789256  -10.89526205255255
C          -1.06975890346724  -18.32223282681779  -10.78773083506877
N          -1.18817613955180  -19.17378746061688  -10.02751898754211
H          -9.13522562184047   -3.68305446410620   14.33588920363650
H          -7.78184330135971   -4.60066680208566   16.16422243788625
H          -5.88675964022041   -6.09420716607638   15.70399252352436
H          -5.29385498250385   -6.69553049083153   13.39283007397373
H          -9.16575851596065   -4.60026237619363    8.85526846321258
H          -8.59183607453296   -5.48953979698432    6.41553190964892
H          -7.37405757104709   -7.99356096813064    9.74672143399703
H          -6.80440884418791   -9.95292641932324    5.17950397732841
H          -7.99702309311682   -7.45940953199366    1.82504177552604
H          -6.94411100975459   -9.76864757753959    1.21856595170126
H          -6.28789083681832  -11.52777078793426    3.62396163798120
H          -4.70512679433994  -16.17774245976621    3.79258313569676
H          -3.53876285814324  -16.92958504914769    1.81271356060132
H          -2.32698459324796  -16.84134113328650   -1.58463915519740
H          -3.30648770342747  -17.70074317431823   -0.37092569486127
H          -1.90841450122945  -16.71112872566132    0.14194577252054
H          -4.94731345086523  -12.46993655354860   -2.49155643771434
H          -5.13215248006438  -15.50415228652784   -2.14173664672343
H          -5.02421267083770  -16.80038263981186   -4.39000481149050
H          -4.38993674911667  -12.51248054662513   -4.69471490977605
H          -3.86532515849364  -15.14709736136005   -8.93393072351761
H          -4.60199716870784  -19.41838482222223   -8.65710717676902
H          -3.42742958715604  -16.49811041438512  -11.11712808465438
H          -4.31580665297974  -19.42405669457132  -10.94186528736590
H          -4.04052793697908  -19.40088262819475  -13.30403262379096
H           0.25668375795704  -14.77866684240681  -13.04404902639574
H           0.73031890456086  -13.63452228081503  -15.16875482635096
H          -0.28339053977995  -14.41399469310688  -17.26635704037894
H          -1.80312714485602  -16.33878313967958  -17.29107150895566
