90
 SCF done       -200.421351112096          0.000998542208
C          -4.52187464007729    3.43528757529705    2.24030576121099
C          -5.11760203996465    4.27617482699516    1.31367076284146
C          -5.90041853796177    3.76758597830817    0.28517885749973
C          -6.11751109352643    2.40455606715402    0.15976268595866
C          -5.53418509593290    1.55100338951257    1.08457366493070
C          -4.72596952610192    2.06798418263815    2.12520540241984
C          -4.20911254989393    0.96691418977416    2.91680193648745
C          -3.49653168779089    1.05864965233665    4.07526010902084
C          -3.17289243260675    2.28337692680406    4.70503600925054
N          -2.88350381596702    3.23835244686196    5.27015663998245
C          -2.98516281451446   -0.02460809542518    4.82857309431010
N          -2.50923451928215   -0.83587878767031    5.48551227704965
C          -4.61422478353203   -0.26880542247234    2.22842228082752
C          -5.60954168746773    0.10754548611839    1.21814621771010
C          -6.52116341152308   -0.70680947674172    0.61159972978862
C          -6.73032991266057   -2.06928047584840    0.90291973168680
N          -6.98156957800396   -3.17241095004075    1.10005334953073
C          -7.44640586686864   -0.26558368777907   -0.36373861105109
N          -8.21268260933501    0.01932604780224   -1.16748421307678
C          -4.01874474325127   -1.45502465901565    2.43891163504133
C          -4.16900297987919   -2.72846978239210    1.75356708108907
C          -3.88919570672413   -2.96553240251406    0.40379359488148
C          -3.52940055894460   -1.91200949031579   -0.56909465936475
O          -3.42230253066555   -0.73683841833833   -0.36770528385484
S          -3.28636567289608   -2.65441734759425   -2.17522654373515
C          -3.63876772318793   -4.31922126759373   -1.57981628436831
O          -3.63926473411137   -5.27638708800065   -2.28913731231567
C          -3.92446024249946   -4.25309095956319   -0.13345118086129
C          -4.24102584518923   -5.38077713999509    0.63204799817367
C          -4.57167099129782   -5.13577406424717    1.97431467211650
C          -4.52661062114857   -3.85750717540800    2.50523393331313
C          -4.97385753486684   -3.74604754875332    3.90955178558860
O          -5.11611775721173   -2.73476887639729    4.53110893133722
S          -5.32188467345147   -5.37890350774803    4.53188678859243
C          -4.97301146575552   -6.17529877834813    2.95373171784366
O          -5.07567481079920   -7.35013965699552    2.78938854007911
C          -4.17178439549787   -6.74741572681001    0.12872531664844
C          -2.95119435058403   -7.32866070096083   -0.22678451664758
N          -2.82300146246051   -8.62062579343981   -0.42497200374246
C          -3.90768786540761   -9.36276250933666   -0.25778817354908
N          -5.13554183807255   -8.89777957463709   -0.10412017712399
C          -5.27598352629234   -7.60433433553568    0.06830377969903
C          -3.72024296555414  -10.82189012371599   -0.13222091128136
C          -3.12884226084509  -11.33840323815014    1.02345097038792
C          -2.67259613779915  -10.52131162226392    2.17537214311367
O          -2.67866708073201   -9.33629720044136    2.29206236544647
S          -2.07434932877172  -11.62920246587233    3.45926521166469
C          -2.43965090103874  -13.10301554907175    2.52184225214494
O          -2.30221439197942  -14.21820643713075    2.92766889912068
C          -2.97304158041255  -12.70429269924134    1.20218934595644
C          -3.40842730503097  -13.64776173539914    0.26069938544773
C          -4.01635161235985  -13.12536209732883   -0.88657390124351
C          -4.15653110119703  -11.74919320510442   -1.07312338391469
C          -4.78023139604103  -11.35850030290973   -2.35563542167865
O          -4.95642125205376  -10.26478069330293   -2.78634299573919
S          -5.23030959368528  -12.86043502117028   -3.24715959264553
C          -4.56215472209791  -13.94277502577522   -1.99224086216854
O          -4.59110643063705  -15.13675728519576   -2.07324932981858
C          -3.13590018967207  -15.05808749665731    0.49546889058928
C          -3.98942914379136  -16.09218184454055    0.58783352171658
C          -3.56466190452435  -17.49973471917499    0.63933934813235
C          -2.33416489736942  -17.96628743348072    0.99379125121484
C          -1.21753224857485  -17.17421666359300    1.35102301710532
N          -0.25544575958932  -16.61146395202184    1.62288027490387
C          -2.00483273218498  -19.34013950702747    1.06597704418320
N          -1.67714205513690  -20.43556021765383    1.15282970382806
C          -4.71569622766569  -18.29143659014347    0.24407881712234
C          -5.83567768460695  -17.43904756678587    0.09373571980231
C          -7.05707390939355  -17.94870677178739   -0.32062102575481
C          -7.15803170034673  -19.30834397120510   -0.56901304552450
C          -6.06387177122387  -20.14844988444459   -0.40635473392816
C          -4.83468621055146  -19.65145486309079   -0.00262208692278
C          -5.45240795069728  -16.09089536104982    0.46896258939287
C          -6.30332968231634  -15.07472951394194    0.79297085938697
C          -7.70652706042113  -15.13837996805726    0.62651336379043
N          -8.84560847148718  -15.12019080247969    0.49934512563937
C          -5.92317515312942  -13.87232781879312    1.42192323041856
N          -5.68202185249183  -12.89867211969010    1.97958380821533
H          -3.90780088331293    3.84438882040615    3.02556178432091
H          -4.96364064291919    5.34145767772839    1.39126699217515
H          -6.34556148383248    4.44191562354056   -0.43005206794930
H          -6.71768021905907    2.02520368069235   -0.65065333807678
H          -3.29538069518156   -1.50955328895497    3.24435719030790
H          -2.04657048636745   -6.74231972053780   -0.31177448841568
H          -6.28786279268906   -7.23913104637579    0.17413238460893
H          -2.07767204084493  -15.26722664585910    0.59899127265314
H          -7.91146834472533  -17.30724372662237   -0.46077100549066
H          -8.10182396899625  -19.71791999624895   -0.89452564969571
H          -6.16795746764243  -21.20448327629327   -0.60262807152110
H          -3.99314767444253  -20.31528940308609    0.10816982344855
