116
 SCF done       -207.002273267161          0.000880074335
C          -9.68766327883877   -8.69428945790865    1.86719730658779
C          -8.79391573502104   -9.75394722454763    1.93877075890811
C          -7.44354167367732   -9.53737788957928    2.16533833572708
C          -6.94703715467568   -8.25277739834707    2.33744248091733
C          -7.82901797992881   -7.18963378295501    2.26597669222594
C          -9.20415819053581   -7.40633046494628    2.02395773700409
C          -9.88132542750341   -6.11362378534219    1.97964951008777
C         -11.23752411800771   -5.92367583646334    1.83379130078818
C         -12.17463589428670   -6.96942206706662    1.72176296167987
N         -12.99725112694686   -7.76581798184347    1.62709261418710
C         -11.89472583777260   -4.67957337209583    1.81090967229747
N         -12.49966051758871   -3.70046992250397    1.78479592644407
C          -8.85624870448193   -5.09995077389371    2.09542806595186
C          -7.62148733523843   -5.75972212129723    2.45226802807565
C          -6.57070624935184   -5.19245840681650    3.13436930371339
C          -6.60853948206570   -3.88284521167158    3.65044113296114
N          -6.63057532049059   -2.84476666814703    4.14252343610428
C          -5.40061967143102   -5.88257188448000    3.49823591372860
N          -4.41153154565882   -6.38515845968406    3.79701449878785
C          -9.07891867148531   -3.76094186051291    1.82229895049115
C          -8.21332801004681   -2.75661265059454    1.41757042120912
S          -6.57544379609586   -2.98891809212746    0.86092383299767
C          -8.57624469837298   -1.39364104774745    1.26828687058352
C          -9.82428279169399   -0.82917029824446    1.54516534506745
C         -10.06855594273790    0.50733357972234    1.31119145135644
O         -11.26894857332765    1.08923564427386    1.55684506617276
C         -12.32383703633770    0.29988805091599    2.06537467458904
C          -9.02764623130791    1.32698211841727    0.76674762716440
O          -9.11699992874300    2.64269045890478    0.44874790273298
C         -10.33574537236189    3.35336945497113    0.49946164626003
C          -7.78816189187862    0.77488805890447    0.52068228582708
C          -7.52284830519646   -0.57539787603834    0.78469790034291
C          -6.33619204646674   -1.30087852853057    0.54859318924252
C          -5.05683509276698   -0.86684210642480    0.14793845555858
C          -4.55428051394021    0.38289248927553    0.36228880356250
C          -3.27404551989067    0.83324794773009   -0.02380650794008
N          -2.44495669680344    0.16705295028387   -0.90506795902661
C          -1.30387278745472    0.88819213715745   -1.05278892571472
C          -0.08412178188385    0.93588958777298   -1.71585875865208
C           0.56063547346292    2.09502059565243   -1.25997818909058
N          -0.24638870060848    2.73412654457631   -0.33877112931647
C          -1.40190914978765    2.03186871426879   -0.21303364799327
C          -2.63747634206637    2.00584204596762    0.41599103573137
C           1.83232596187863    2.62038810211218   -1.59327167296376
C           2.56378876847664    2.25056227097949   -2.67808056708351
C           3.83246470346313    2.77512337410782   -3.02166549813288
S           4.26590648820116    2.87622883935812   -4.69670051456090
C           4.85043842155649    3.31067083807631   -2.21411474363910
C           4.90995515261853    3.31866256705177   -0.80474412167754
C           5.95274512494472    3.93632339495860   -0.16645837214350
O           6.12686970345855    4.00020252319369    1.17407769967891
C           5.19161404175928    3.35986731053201    2.00593908922409
C           6.96698356770023    4.61176386229952   -0.93072719409613
O           7.87251012456240    5.28493026486892   -0.20025544427998
C           8.86590723283521    6.02483268314098   -0.87912897632995
C           6.96946522332675    4.52234534231828   -2.30179149316362
C           5.94020527375738    3.83635450176134   -2.96362289853086
C           5.78528704776743    3.66700676576394   -4.35651991917042
C           6.59331884171199    4.05743544170685   -5.42586533412141
C           7.94479146279844    4.31682144948468   -5.39812618042455
C           8.66610236495407    4.78756012040290   -6.50253811568400
C           8.14612361231441    5.52643634541061   -7.55028839275912
C           8.67993839480390    5.57295292447711   -8.89615833986554
C           9.88989298204383    5.09191295585029   -9.33391758991175
C          10.87007217871582    4.48546191025014   -8.52410856920050
N          11.71400447953898    3.97854837832095   -7.93113884689018
C          10.33616730520666    5.16855335744507  -10.66833298952897
N          10.76646904319841    5.20105304848683  -11.73288053220163
C           7.66428059914484    6.20384317096516   -9.73442635524335
C           6.59895197675689    6.63318260537071   -8.91190751998254
C           5.48441815523455    7.24519488644636   -9.45863640950872
C           5.43807559079004    7.42988879990353  -10.83284171462307
C           6.48738328547151    7.02018280693111  -11.64142479184976
C           7.60917629449183    6.40498235751516  -11.10356615710039
C           6.94672615489551    6.34077095534885   -7.52895463357275
C           6.41411469292889    6.97861606746456   -6.43187277172894
C           5.28358651864742    7.81417303111920   -6.47474976218027
N           4.34895053692503    8.48158370177672   -6.43744373699276
C           6.98991075705241    6.94461781651886   -5.14998639605480
N           7.45132217983865    7.02087407948566   -4.09944558395946
H         -10.73389025533457   -8.88334271382246    1.69160134317621
H          -9.16027996058898  -10.76164843902499    1.81414195653593
H          -6.76686638456163  -10.37717322190097    2.21069095885392
H          -5.89498755062960   -8.09417593713115    2.51200904431601
H         -10.11422505828632   -3.45263133145066    1.84196720320043
H         -10.60959942119177   -1.45516863920666    1.93267016214926
H         -12.07943847747155   -0.10582060873686    3.05083801629278
H         -12.58064525297867   -0.51869944870777    1.38790507664658
H         -13.17139418950319    0.97741518648979    2.15321350996375
H         -10.09552835695972    4.34483387531024    0.11578282159263
H         -10.71326760594731    3.43963698462402    1.51986605754689
H         -11.09841855154471    2.89472975633507   -0.13272017466182
H          -7.04252371470575    1.41502601781995    0.08100707670019
H          -4.41438619267251   -1.63464017424843   -0.26540428604987
H          -5.13514640631459    1.08881970637195    0.93564970010631
H          -2.68391516519391   -0.68243828982689   -1.38536535174047
H           0.31770594544377    0.23261142410964   -2.41626736073410
H          -0.02513312038192    3.61052084602241    0.10162624218507
H          -3.04910917451395    2.70784574622882    1.11259506317318
H           2.19494798241519    3.42214255903412   -0.96422640203089
H           2.12028627211479    1.57409624561280   -3.39591552354132
H           4.14027912273006    2.81228046017292   -0.24805613970733
H           4.19220073881387    3.79372095182216    1.89537897329040
H           5.54343391812629    3.52288717320291    3.02294692148945
H           5.14456465232020    2.28440112994961    1.80610131483313
H           9.41124502057599    6.55999604411007   -0.10412881962582
H           8.42529047043922    6.73696698706385   -1.58179526186128
H           9.55361778388494    5.36379917091645   -1.41538802045476
H           7.72256273586116    5.02425992689457   -2.88009296508181
H           6.10137727720801    4.09337814342078   -6.39271950671580
H           8.51452802986952    4.01804518397670   -4.53090893319726
H           9.70718103693029    4.50038131420423   -6.55474588562379
H           4.66154584827233    7.56308392469724   -8.83880779139465
H           4.57244356977124    7.89904703119151  -11.27527451714219
H           6.43361250325666    7.17867288781197  -12.70777483933667
H           8.41332733758568    6.09331606658667  -11.74936032967502
