86
 SCF done       -165.040163526487          0.000441032719
C          -8.12285978911931    0.75692358471567    6.81856579881742
C          -8.75161187491404    0.14106451663163    7.89080716586190
C          -8.63884039954065   -1.22597464235044    8.09899218427050
C          -7.88565146330579   -2.01696001037577    7.24410244436122
C          -7.25558249742615   -1.41344836502793    6.16913568034971
C          -7.37644376206913   -0.02241065705499    5.94904456540825
C          -6.63560740440554    0.33141792757224    4.74391540218332
C          -6.42714972257334    1.60058923787227    4.27154576276014
C          -6.91102315595986    2.76788535935993    4.89871880725396
N          -7.27458574751343    3.75679306531678    5.35450847910186
C          -5.67466457736767    1.92927997129582    3.12496620113014
N          -5.07491114920329    2.27009117648175    2.20662810184286
C          -6.17978126289073   -0.91853317396274    4.15166476989364
C          -6.37936380006858   -1.96280984836469    5.14584240046070
C          -5.66860975619723   -3.12879169140939    5.24837181986438
C          -4.56659347957593   -3.44695353530140    4.42647698282473
N          -3.62519730967136   -3.70939057409927    3.82421461822802
C          -5.89213754660454   -4.10569144370039    6.23808572030501
N          -6.05111373743688   -4.95505646444204    6.99436611615286
C          -5.79140254513321   -1.06078860953835    2.84453395586805
C          -5.74099699758289   -2.23941558099060    2.07856745538456
O          -6.29072179239391   -3.41844790996150    2.51983475883523
C          -6.08726968300946   -4.31987714539314    1.55295414324509
C          -6.37031272156626   -5.67246332683060    1.39889347733018
C          -5.90924223482014   -6.13527833186451    0.17622368860400
S          -5.13674606038266   -4.88146492782151   -0.78427116012352
C          -5.41876003266692   -3.72890406872058    0.46417240813754
C          -5.21096026587670   -2.39498364934695    0.79607702600129
C          -5.97668810164616   -7.45309936988827   -0.34012833769872
N          -6.52940832785967   -8.50320196300947    0.36507845019748
C          -6.41943945943689   -9.62853923839322   -0.38892292899433
C          -6.68618500419236  -10.99233241109575   -0.41523912371861
C          -6.21238827169910  -11.45515669258886   -1.65069613281023
N          -5.67769191083454  -10.39716759687902   -2.35953731859407
C          -5.78799383534106   -9.27239164890643   -1.61025259697392
C          -5.51216171958645   -7.91010277554558   -1.57847627082748
C          -6.20342986853735  -12.76101149529470   -2.19616843406811
C          -6.68662912252194  -13.87758624027130   -1.59438046456543
C          -6.61014530212848  -15.16335320123298   -2.18588598400708
O          -6.03480376321416  -15.30739233753094   -3.41927138517126
C          -6.06933561722875  -16.61910743630208   -3.70517701308888
C          -5.62900114609778  -17.40196265979280   -4.75723801358946
C          -5.90616350379297  -18.74751870722003   -4.52993259446876
S          -6.75186764185055  -19.00751545613385   -3.00024179073368
C          -6.68673779157737  -17.33123821765943   -2.65611940941475
C          -7.03118573394466  -16.38973075390544   -1.68405764230986
C          -5.68432652130617  -19.86699042763309   -5.35174793818237
C          -4.83451560759345  -19.98190550671885   -6.42351189426235
C          -4.99088647057275  -20.96442149553400   -7.48786192950254
C          -5.75215532648528  -22.10346481945266   -7.46934087707910
C          -6.51046460257534  -22.57028665304827   -6.37530817031890
N          -7.14772587199953  -23.01874207478305   -5.53157764068277
C          -5.84968843572358  -23.00575135981227   -8.54972570051122
N          -5.97637826419999  -23.78130019349075   -9.38661772370508
C          -4.17754844289582  -20.50433155200627   -8.60766092726584
C          -3.42881125278182  -19.37933046853399   -8.19558650041686
C          -2.58428565835084  -18.72886822547204   -9.07938337154295
C          -2.49038786655859  -19.20661852859316  -10.37801904054947
C          -3.21828893522173  -20.31586318271535  -10.78309299970554
C          -4.06640070047852  -20.97594591252329   -9.90589842638987
C          -3.71326294621134  -19.13064976720950   -6.79022737552540
C          -2.89832603620393  -18.44198776844683   -5.92927530185309
C          -1.77447109487239  -17.69559354733763   -6.33654161200156
N          -0.86570201672090  -17.04950096892366   -6.61023159442042
C          -3.03095820866879  -18.46205798878006   -4.52589029265468
N          -3.05799777530839  -18.47891371667473   -3.37835029493293
H          -8.22410845065944    1.81961829055326    6.67222961290138
H          -9.33967706605636    0.73805312874262    8.57097980489385
H          -9.14294059058383   -1.68280081529927    8.93692193640499
H          -7.80687784546468   -3.07897263178898    7.41228647271033
H          -5.56705525527009   -0.16844379938275    2.27807711314944
H          -6.86683295600428   -6.27699345540981    2.13387703057980
H          -4.72914409026186   -1.63094344284931    0.22202408363906
H          -6.90801517463435   -8.43792078335302    1.29303004128663
H          -7.15062389205161  -11.59013354374694    0.34166250371640
H          -5.26239065171381  -10.47487867247650   -3.27199802712075
H          -5.04125836459556   -7.30156394410106   -2.32381199314647
H          -5.75735009396031  -12.86773309065890   -3.17666487416314
H          -7.14244677105833  -13.83289168257159   -0.61827057601783
H          -5.17468813073840  -17.02453941685291   -5.65427339825741
H          -7.51214097124925  -16.55644680641086   -0.74315161641661
H          -6.32342739406335  -20.71282473977365   -5.13518457178884
H          -2.01889113476821  -17.86226241634824   -8.77701792474807
H          -1.84254814064197  -18.70555744216138  -11.08091922171214
H          -3.12845801984967  -20.67201443867560  -11.79792171593005
H          -4.62645608087447  -21.83307882077365  -10.24101685201179
