95
 SCF done       -207.548382063372          0.000744335853
C          -5.45619977901663    3.03360924198297   -6.02501072683341
C          -5.00326017675749    3.25359023015636   -7.31745998949873
C          -5.11361657561959    2.27268386414119   -8.29355303090091
C          -5.68937650523938    1.04329285435519   -8.00813914196169
C          -6.14763340500024    0.81348488191215   -6.72193405263497
C          -6.02671389721735    1.80676173306489   -5.72214339164197
C          -6.56273873374477    1.28717987010563   -4.47076881021416
C          -6.75230790772789    1.99039380718027   -3.31447210129330
C          -6.43759266928836    3.35996022564034   -3.16530632160619
N          -6.20719796756527    4.46806521951106   -2.97937832827889
C          -7.32372991079593    1.47750121329595   -2.12792677745724
N          -7.77958429822477    1.13807353472321   -1.13173575469850
C          -6.84650252401330   -0.12920232832294   -4.69691730360637
C          -6.81201147349141   -0.34281992850860   -6.14182024492904
C          -7.51207138688867   -1.29618229903243   -6.82542711093979
C          -8.37736646541746   -2.22458168301908   -6.20499890105845
N          -9.12463946942332   -2.95086435868673   -5.72550319109183
C          -7.53759671131360   -1.38547278164280   -8.23459371707991
N          -7.59149372615956   -1.49204087259224   -9.37484877832818
C          -6.97348455136897   -1.07275668425847   -3.71572572879690
C          -6.79694265309420   -2.46300931859980   -3.87347240477526
C          -7.06721794388601   -3.48518542484077   -2.98457884680713
C          -6.65147587443113   -4.70143246552994   -3.58170709446002
C          -6.07957665041405   -4.37677356871035   -4.87793541816307
O          -5.57623876775932   -5.03642760995995   -5.73565488730939
O          -6.19922557759694   -2.98836440193121   -4.98601963484842
C          -6.93285089879291   -5.72807493037653   -2.69541346962896
O          -7.50757528073704   -5.20366533213248   -1.57447494017800
C          -7.62737607390021   -3.81905552329186   -1.67728408985327
O          -8.09291942644367   -3.15201920983824   -0.80560779338468
C          -6.67398433964944   -7.10406327380236   -2.82143098643327
C          -6.94775382816425   -7.98970298116875   -1.81847149628465
C          -6.67474460755058   -9.38087356089344   -1.80226906361316
C          -6.10729026722269  -10.14116003589353   -2.86607585995199
C          -5.82489637581908  -11.54607198894855   -2.72762492674404
N          -5.39145148487977  -12.25068529540319   -3.78129926043336
C          -5.14617618321873  -11.64030291835011   -4.91018546757874
C          -5.32386183956149  -10.22153767117490   -5.02171599294049
N          -5.81805541955893   -9.53120485418855   -4.02511768065555
C          -4.98608281661630   -9.56170673552097   -6.23211480733963
N          -4.69456314674801   -9.07820819061673   -7.22766796533604
C          -4.71795722981810  -12.39533414728992   -6.03354003427638
N          -4.36715240517022  -12.96419888510345   -6.96251241960803
C          -6.04842449790442  -12.24061963923163   -1.50960976995323
C          -6.59092575112682  -11.49067946925433   -0.44929121032803
C          -6.92727333372829  -10.09668131518782   -0.60765254634721
N          -7.41971393920617   -9.58575821728400    0.52341235397891
S          -7.43306806963195  -10.72190171011762    1.65205126776769
N          -6.80538060809299  -11.91343919988871    0.79575911159152
C          -5.75087760612758  -13.61995088585685   -1.35033255804152
C          -6.28965925410790  -14.55500144076677   -0.48361503607849
C          -5.61748744532924  -15.78119730939244   -0.73590754558564
C          -4.65011716678036  -15.54653649086694   -1.79371643918502
O          -3.85599066661932  -16.26606080710860   -2.32689414396239
O          -4.79986670787634  -14.20635168802859   -2.12500922085782
C          -6.17886173501114  -16.75219291519115    0.06783131922810
O          -7.17712255775251  -16.20128633719601    0.80691551723454
C          -7.32981789553979  -14.84641667226384    0.49944167184838
O          -8.19736169740957  -14.18930410730292    0.99090269875813
C          -5.84586434594727  -18.12007144895135    0.12930546871687
C          -6.49863556950468  -19.03282081993193    0.89701682888311
C          -6.15862872505848  -20.41009129809949    0.97980958666827
C          -5.55165146877211  -21.18779276812815    0.03946801816800
C          -4.87832264408537  -22.45705884675026    0.33077329106203
C          -5.06507947597889  -23.25980091867642    1.42051280617642
C          -5.99760852633788  -23.03317177042764    2.45730133396205
N          -6.73271260250309  -22.91929435991130    3.33108555384390
C          -4.37217095332715  -24.47329579597579    1.63234357721418
N          -3.84873862571496  -25.46696390115701    1.86496463852364
C          -3.96852203751265  -22.70914465477601   -0.77715220694828
C          -4.21837804610971  -21.76313957371112   -1.79802617190079
C          -3.46627492160310  -21.76020001473888   -2.96135134901850
C          -2.47047856237050  -22.71458470767108   -3.10461594077607
C          -2.23214548609609  -23.65375932464996   -2.10996264378934
C          -2.97344445323085  -23.66145309324815   -0.93794570946317
C          -5.32283157831491  -20.91407348567203   -1.38164697344754
C          -6.14063005099187  -20.21372647014058   -2.22170703530791
C          -5.94070548633492  -20.13396501494421   -3.61879714979831
N          -5.83552896369231  -20.04546365464498   -4.75692037070859
C          -7.33193294217830  -19.56665276814324   -1.82905119629380
N          -8.32799568129606  -19.05459808241410   -1.58123597558484
H          -5.35465875607979    3.80445756669191   -5.27901913105799
H          -4.55319078089346    4.20300437406224   -7.56343192226985
H          -4.74511603846613    2.46594727986186   -9.28914082517426
H          -5.76173664321536    0.28427878772691   -8.77006702240577
H          -7.14243534855889   -0.76345782795324   -2.69328290333077
H          -6.22229123125904   -7.42040026424924   -3.74945692486080
H          -7.39503035627707   -7.61120007157381   -0.90728969114143
H          -5.00427324196530  -18.40019645690563   -0.48984647399447
H          -7.27515378539697  -18.67883387652944    1.56202635126720
H          -6.36352311373729  -20.86543588243303    1.94049728549153
H          -3.63348221930703  -21.02645449271496   -3.73294795515382
H          -1.87140183071935  -22.72297242723578   -4.00194874937901
H          -1.45264919139524  -24.38762318299171   -2.24509925976086
H          -2.76590015792035  -24.39059996459025   -0.17222868469900
