142
 SCF done       -240.584634823027          0.000706838810
C          -3.93703015070137  -14.32573471147542    9.10388025120684
C          -4.61406199439075  -15.51344173761800    9.34345007930655
C          -5.87266304015250  -15.73777594149294    8.80830352743418
C          -6.49112549010640  -14.77920725419978    8.01834123739518
C          -5.81973287865139  -13.59659083850258    7.75943507122165
C          -4.53849073681822  -13.36606648446684    8.30736447955792
C          -4.07586606386211  -12.05053614224926    7.87594755073706
C          -2.88459542822527  -11.46859599202669    8.23645779447212
C          -1.95129800109284  -12.05229927199969    9.11666407038365
N          -1.14686707706634  -12.45992138645850    9.82820163890213
C          -2.41733766840877  -10.21037764891498    7.80772178846902
N          -1.95922647884219   -9.20123634518627    7.50328005694040
C          -5.08160940374092  -11.52274064185084    6.97853929606244
C          -6.21602349874138  -12.41386449207162    7.00707563801632
C          -7.50828037066056  -12.11853599317533    6.63201484184187
C          -7.95648679299596  -10.85482346012326    6.20633105109841
N          -8.41009225937546   -9.84541115926103    5.89585253764550
C          -8.57073761233291  -13.03356502770870    6.63727210577661
N          -9.47504308072721  -13.73979751458921    6.53614670948855
C          -4.92450782776546  -10.37878794318310    6.21065679308312
C          -5.56643096014731  -10.09506096022378    5.01241788099104
S          -5.59339241242263   -8.46732316753012    4.38181213990598
C          -6.52070777016765   -8.88820555842989    2.98696849706720
C          -6.75633820654379  -10.28137561803175    2.97361861692274
C          -6.19268286848447  -10.96058850282870    4.08656966489858
N          -6.17365592000965  -12.30048679988728    4.13261074628283
C          -6.78310610707319  -12.95516971107814    3.17074790632394
C          -6.65045404857460  -14.44634535500850    3.17738974434173
C          -7.63541726742656  -15.08085056465609    4.17101984856725
O          -8.95719477220360  -14.73388053042479    3.83791152557552
C          -7.52214971065742  -12.26394837808938    2.16346388980808
C          -8.39669694118214  -12.97943045854252    1.16448962594671
N          -9.20187112847639  -12.11430052142192    0.33003893715781
N          -7.45473663890973  -10.95811784622625    2.05213682251879
C          -6.93983263079257   -7.90664899269735    2.07008399382684
C          -7.76241001255107   -8.18254108677519    1.02048292424298
C          -8.21188420759345   -7.28015028471907    0.01061006860611
C          -9.13294197595558   -7.74837267851752   -0.91150038286177
C          -9.58444202548193   -6.92231004800952   -1.95262419136225
C         -10.47804799729347   -7.15513682430337   -2.99303365833987
C         -11.28091216279082   -8.36955024815037   -3.29910158565928
C         -10.44260487669451   -9.44165701699374   -4.03582543639692
N          -9.31908963258308   -9.86816935856229   -3.22482199642082
C         -11.94162887700281   -9.01425740364760   -2.06586528081616
N         -13.11833788242874   -9.74943588122978   -2.49915632781242
C         -10.49665864338100   -5.95294115016423   -3.79611001558556
C         -11.16522456010400   -5.65172636405640   -4.92443258401536
C         -11.01095620916295   -4.33569817081793   -5.59901096367252
C         -10.04587662058099   -3.40015591098726   -4.92969680411577
C          -9.40491376920389   -3.70817909155524   -3.78853448272622
C          -9.58669657859882   -4.97535262528937   -3.18261844750998
C          -9.04685112636963   -5.56917554328707   -2.06291608698583
C          -8.12031070918578   -5.10813498799768   -1.09573574895381
C          -7.72624119415605   -5.93129289152335   -0.09469173764676
C         -12.31701669833503   -3.59175799150035   -5.70984250167273
C         -13.34197136131037   -3.75374940787305   -4.86109792154810
C         -14.54986029304169   -3.00230669705298   -4.93953416984265
S         -15.83634639264221   -3.28602566618236   -3.82521506929318
C         -16.87436428355312   -2.07673783224849   -4.51420145281386
C         -16.21641282586496   -1.46086234878738   -5.59603268345602
C         -14.91514740192327   -1.99136721032847   -5.84153254238741
N         -14.16300086826678   -1.51705066613369   -6.85000281395404
C         -14.67830660486090   -0.58325891387731   -7.61485704191255
C         -13.78013653978061   -0.12499304634075   -8.72846032062652
C         -13.68695752258660   -1.18166381829821   -9.83538187325777
O         -14.86334432801179   -1.12772344308906  -10.61208361938924
C         -15.98419936965945   -0.05588763009547   -7.36881907185270
C         -16.64719565269408    0.96419916510269   -8.25262003741533
N         -17.26697052369962    0.24943248567739   -9.35454869743248
N         -16.71078131878845   -0.47872313219388   -6.36390544780563
C         -18.18288541974328   -1.87964125414877   -4.05006295050931
C         -19.03518059104520   -0.97822643358866   -4.62654632055120
C         -20.35902118604078   -0.79556392522740   -4.20572376651718
C         -21.28412892069477   -0.00545204038395   -4.84673871058643
C         -22.49575888374070    0.52142838963757   -4.24225949417902
C         -23.13024226352930    0.06119508079034   -3.11725873136519
C         -22.73271027665600   -1.06175775823957   -2.36259123434975
N         -22.47452689419522   -1.96740548073098   -1.70498113675946
C         -24.30330894208146    0.63004748256657   -2.57995367077031
N         -25.25469970863147    1.04434769661135   -2.08845770182406
C         -22.91638288121357    1.65180428869911   -5.06136462030936
C         -22.07745071997143    1.73062158259929   -6.19638683506592
C         -22.24893802604025    2.74083623197110   -7.12776616741482
C         -23.25961739285176    3.66867583427805   -6.92304928496435
C         -24.09011415111436    3.58614804264289   -5.81529584296999
C         -23.92909997229989    2.57895180964080   -4.87529974287276
C         -21.14658954870986    0.60993007407649   -6.15755445507123
C         -20.45715966206129    0.10636343718399   -7.23164198074728
C         -20.36823049620719    0.76551564109563   -8.47332699762062
N         -20.24716547586619    1.29076440057249   -9.48758596569326
C         -19.87421710011310   -1.18021300616532   -7.27181586169486
N         -19.47885573225917   -2.25240913077928   -7.37406842686981
H          -2.96308549827705  -14.16636104476586    9.53604908493694
H          -4.15167878073446  -16.26985164733851    9.95915063473798
H          -6.38254704636606  -16.66789722947281    9.00870862479480
H          -7.47494921060427  -14.96682709760380    7.61912101674021
H          -4.19675230933219   -9.64810808891527    6.53742718187749
H          -5.64100264639124  -14.70934637847172    3.49755320731819
H          -6.83820599399075  -14.84627115691396    2.18275326573410
H          -7.37668927724435  -14.73722314000862    5.17689333869298
H          -7.51658992501604  -16.17396975273057    4.13751776102545
H          -9.47388036475897  -14.61890623921719    4.64908139169459
H          -9.05660234998017  -13.65723754604451    1.71564368456699
H          -7.76492950249042  -13.58817461889048    0.50681449538844
H          -8.60355035020092  -11.48032204352417   -0.19064994901985
H          -9.80674965066248  -11.54586283228063    0.91409987199457
H          -6.58153206067149   -6.90390071523424    2.25683921325068
H          -8.11991016368812   -9.19932323630422    0.93679117966220
H          -9.48772064768099   -8.76408287983395   -0.84708532893652
H         -12.08621055885661   -8.08308888826061   -3.98417283662404
H         -10.14370713630807   -9.03936998757491   -5.01835285673984
H         -11.09740418965058  -10.30072535042182   -4.19344286058841
H          -8.58367945666292   -9.17007205768376   -3.23337061774354
H          -8.93761148964821  -10.74049238669845   -3.56858754395980
H         -12.16147818907710   -8.23534223972482   -1.31742124950553
H         -11.24787870790957   -9.73416040493567   -1.63092203965630
H         -13.87215707289340   -9.11376927112477   -2.73914409784759
H         -13.44951060304954  -10.36034487251065   -1.76207445480475
H         -11.84710191691396   -6.34987364745217   -5.39168760109707
H         -10.65807245630353   -4.52639950238826   -6.62477524229065
H          -9.91406007730553   -2.44132482638772   -5.40659388886555
H          -8.72835644763840   -3.00126876253856   -3.33050598665636
H          -7.73387233406781   -4.10229157256113   -1.17162409665047
H          -7.01552184787659   -5.58169735162201    0.63716525038449
H         -12.38673200055673   -2.84262713569917   -6.48404888067516
H         -13.28738767588211   -4.48336147293574   -4.06330120924675
H         -12.77992938623162    0.02319395041944   -8.31803088434561
H         -14.13074964277637    0.80567316917043   -9.16938100880960
H         -13.56087573992734   -2.17225122164524   -9.38011139371854
H         -12.81206234983104   -0.96752544748847  -10.46634659041666
H         -14.88560541951214   -1.87033382009109  -11.22344885072098
H         -15.92271430595440    1.73997815422521   -8.55891933495350
H         -17.43917986474327    1.44948259379348   -7.67459762272033
H         -16.56111206836020   -0.19823073030068   -9.93113563129033
H         -17.80904823304041    0.88065690506979   -9.93317562470610
H         -18.52709811289341   -2.51139258785565   -3.24097321945728
H         -18.64117850435741   -0.37789313120826   -5.43241982380665
H         -20.64121662068945   -1.25184451034635   -3.26652347202202
H         -21.60842256020963    2.81946309885167   -7.99088288183752
H         -23.39893204755599    4.46555733500801   -7.63767001525741
H         -24.87219133873955    4.31710192422550   -5.67746273047077
H         -24.58092733842300    2.53197540523601   -4.01856783520917
