106
 SCF done       -192.073452785495          0.000748059180
C           1.02193136223710   -1.18367653622635   -1.75246476204558
C           1.27161631788353   -0.89100152612505   -0.41967302664675
C           0.64303468460375   -1.59360280603426    0.59797733656653
C          -0.25008035634597   -2.61547545414859    0.31187398873770
C          -0.51096275929148   -2.91284232046803   -1.01488016576615
C           0.12272580022222   -2.19395757871380   -2.05369515683879
C          -0.35163866283476   -2.70120690173702   -3.33644830310773
C           0.12075927049118   -2.33748496377658   -4.56979600361025
C           1.14718680029331   -1.39269168469303   -4.77622137363569
N           1.97389808433339   -0.63212633956337   -5.01402870064397
C          -0.31054299765360   -2.87910115314143   -5.79898105092361
N          -0.59988308257157   -3.27559589968692   -6.83708184832865
C          -1.41389121502563   -3.65098934411556   -3.04140607519224
C          -1.35474597409314   -3.93484836329137   -1.61638551835367
C          -1.78433911943916   -5.08002246368114   -0.99868534418347
C          -2.25881610283508   -6.21031145227870   -1.69746899026530
N          -2.57620187018480   -7.17491389418311   -2.23267091943554
C          -1.72265245533981   -5.29886320193734    0.39066860191534
N          -1.74070679336623   -5.51340326399141    1.51890642199736
C          -2.38733081426604   -4.02147903665830   -3.93435973318275
C          -3.65719176106019   -4.54753063547834   -3.65678719318973
O          -4.16755595821252   -4.67621297967100   -2.40045486416110
C          -5.41741473401679   -5.17331850530664   -2.47879631111536
C          -5.76151061826393   -5.32474781592590   -3.81889115187427
C          -4.64074339877259   -4.93334190957882   -4.57566261738349
O          -4.50934799500974   -4.90637503720815   -5.90086842003902
S          -7.26963964312728   -5.85507852428316   -4.57028726625057
C          -6.11970620258349   -5.43792600808329   -1.25347824361329
C          -7.26355040427341   -6.20390406993473   -1.22488708459888
C          -7.91347992755819   -6.45211880940644   -0.00126960268036
C          -9.07431426740906   -7.15409427099793    0.29045946212782
C          -9.98008750806551   -7.90133010732860   -0.62501494028619
C         -10.53226033031466   -7.02625839754637   -1.76577135533807
N         -11.81779243358028   -7.55392738891440   -2.17779017651074
C          -9.27814621800241   -9.16001741689758   -1.17200676751541
N         -10.25212393942559  -10.02703005400005   -1.81418219146160
C          -9.25895179329447   -7.06384626767803    1.72135546819136
C         -10.23777618353434   -7.53488830899649    2.51440638307584
C         -10.22263189191274   -7.31622422686645    3.98836058180138
C          -9.02090242121437   -6.57040334953325    4.49515085891816
C          -8.06421576246892   -6.08792109093106    3.68234153947160
C          -8.14230723295161   -6.29099782985829    2.28323034630561
C          -7.33889838017780   -5.91385843662368    1.22882559759877
C          -6.14721168200061   -5.15221393234913    1.16672945953617
C          -5.56588226955081   -4.91721457057352   -0.03332225664144
C         -10.31407662766966   -8.64419893033840    4.68732890145831
C         -11.00275067567426   -8.86250082508568    5.81273951934349
C         -11.11420701385965  -10.15532497359785    6.42029712082668
O         -10.63324126078282  -11.24064806110496    5.76599253433141
C         -10.95036159052678  -12.34993387339761    6.48388806870640
C         -11.61356019074433  -11.96368284964842    7.65192944902789
C         -11.73078188056148  -10.55696423274714    7.59355051787236
O         -12.33130825257454   -9.81624020491315    8.55047607694238
S         -12.21418740081066  -12.99353091139480    8.90742104783857
C         -10.61086004405289  -13.64564144180434    6.06081380400151
C         -10.13279550813133  -14.01447115064408    4.82950664811715
C          -9.39161611289629  -15.23917035636538    4.56024647204441
C          -9.36001722100213  -16.37472428600317    5.32402277326269
C         -10.10178182456374  -16.57850580455453    6.50713876271718
N         -10.68067974099189  -16.81479083561949    7.46980517749644
C          -8.60631703919129  -17.52338422905462    5.00210800620542
N          -8.01630611312991  -18.48668698222107    4.79936808869752
C          -8.67592216206689  -15.02678919112088    3.30693766425782
C          -9.07681842301696  -13.78849091645587    2.75553554371253
C          -8.53131581260434  -13.33272399918708    1.56735607927226
C          -7.58197810009740  -14.11765748617756    0.93040363105965
C          -7.19453744668317  -15.33850201526021    1.46392070763889
C          -7.73567467239438  -15.80646488155826    2.65263652519130
C         -10.10446754963128  -13.21909464516569    3.61191905526306
C         -11.03880890734484  -12.29302640410196    3.22593604167856
C         -10.96733358535179  -11.53375329267576    2.04585206227302
N         -10.95556930443258  -10.83936160977540    1.13012409858417
C         -12.23182030210949  -12.04191131631455    3.93692610466500
N         -13.24169007965578  -11.85327724829237    4.44913748618254
H           1.51872511776809   -0.62603083037852   -2.52912519867833
H           1.96519572427344   -0.10131011269818   -0.17408676786238
H           0.84981056717534   -1.34338403939833    1.62742296585836
H          -0.73565901611193   -3.15385460879337    1.10988509915110
H          -2.23848306358794   -3.81301694263010   -4.98471406122292
H          -5.32726784591655   -5.21427598678634   -6.31930518291306
H          -8.07543773295000   -5.10069969928496   -3.82236782780982
H          -7.64925861138713   -6.65113573850112   -2.12474049872079
H         -10.84905616121677   -8.24287358766895   -0.05619841998613
H          -9.79735547691408   -6.98619053403153   -2.58660888251774
H         -10.68433235890669   -6.00396869235940   -1.39977678124328
H         -11.69211794531119   -8.52867110581003   -2.44035823701054
H         -12.17364653008897   -7.04628966603077   -2.98052737674987
H          -8.75147950445707   -9.64928372985539   -0.33445393749771
H          -8.52746272550707   -8.87630741554309   -1.91479676807521
H         -10.88471665864493  -10.38865074605101   -1.10521393748158
H          -9.78673949416689  -10.81949468311232   -2.24486338160697
H         -11.06798341683602   -8.10687687279440    2.12316449941799
H         -11.11937790260255   -6.73396416399872    4.25214356813187
H          -8.97074660825883   -6.43670942703396    5.56495675648739
H          -7.22380865771586   -5.54291558770218    4.08693804054574
H          -5.71369017670415   -4.76286166768210    2.07550456593316
H          -4.66400613456739   -4.32928130039201   -0.10103807112806
H          -9.75179105303291   -9.45082261686499    4.24017812236189
H         -11.54449821241066   -8.05879649407652    6.29423794924023
H         -12.35341090919024   -8.88861098224904    8.29145168413757
H         -12.71309350765107  -11.98078094775949    9.61712817653266
H         -10.68234782286854  -14.39401874791927    6.83771444922236
H          -8.82285373414575  -12.38214212090618    1.14966040500415
H          -7.13856136068918  -13.77222856937739    0.00904145094568
H          -6.45691236272905  -15.93511699630243    0.94960722344255
H          -7.41933874302944  -16.75583830108248    3.05199377490816
