116
 SCF done       -211.773794372709          0.000718479874
C         -10.84046277479617    4.53405327675050    0.30072099971482
C          -9.58159008382401    5.10483973078903    0.18241669553161
C          -8.43238912821479    4.35825383310944    0.39852091955432
C          -8.50904318947048    3.01881498514390    0.75024413604512
C          -9.76042629560878    2.43960486193838    0.87197862150247
C         -10.93269419051160    3.19382284939357    0.64053162109320
C         -12.09346873387608    2.32762651573440    0.81455505276807
C         -13.40343654807325    2.72923765304369    0.78209177908421
C         -13.81708896892584    4.06316708865510    0.58314152213502
N         -14.22580328991776    5.12465480368574    0.42746910209122
C         -14.52195343109599    1.89394435218634    0.98202393905342
N         -15.47923928657242    1.27816250655375    1.13692189407254
C         -11.58351624934652    0.97837101894601    1.01309890924604
C         -10.15478681053869    1.09543658567729    1.26348404249732
C          -9.39557492753294    0.23642577705531    2.01531635028950
C          -9.91908047592405   -0.89673460119861    2.67140624873026
N         -10.32216388535245   -1.79514276859303    3.26200174197434
C          -8.03178254847839    0.43920411612973    2.30467273143054
N          -6.91574532819415    0.54197218058170    2.55365440245953
C         -12.33329255000324   -0.16284894007388    0.87993260713380
C         -11.90968304327025   -1.47669935084546    0.61388378715035
S         -10.33512708108376   -1.88103098465156   -0.07936415811959
C         -12.70077468336964   -2.61551475650507    0.76107998440814
C         -12.04306239936454   -3.77228004658317    0.38681858185805
C         -12.30721612004707   -5.23629663117853    0.37243651738826
O         -13.30757294447221   -5.82244671836687    0.69856588885051
C         -10.74461646644774   -3.53281320328425   -0.09964413306961
C         -10.13717652905636   -4.76617232372192   -0.42967998931703
S          -8.64145550252788   -5.34801666393169   -1.01856567912614
C         -11.03088196521149   -5.80646080194525   -0.14368864367987
C         -10.49440953017730   -7.06493176159662   -0.38007537224054
C          -9.19156956976108   -7.00505243048500   -0.85311766724249
C          -8.30052220183213   -8.09486417729252   -1.14002690140792
C          -8.56815451832644   -9.36207945411730   -0.66851825211699
C          -7.64716899290601  -10.40293614849240   -0.88610074771072
C          -7.65704887372685  -11.72456461611400   -0.46108044129281
C          -8.72961260791024  -12.39037281593511    0.33178029524440
C          -9.29579334695849  -13.62616458221382   -0.39452564703034
N         -10.66092056655931  -13.84513045683347    0.03738626337254
C          -8.23544146437968  -12.73074302388573    1.75013959391410
N          -9.33967259500768  -13.18287742817724    2.58226080182320
C          -6.42118057180033  -12.31429351946532   -0.92035930374064
C          -5.88469962897651  -13.53338567548884   -0.72835995155299
C          -4.53124460623655  -13.88557835297433   -1.25141442439244
C          -3.90110185027445  -12.83811359981645   -2.10800274692163
C          -4.43851634768965  -11.61563793543110   -2.27313442289536
C          -5.68112155089602  -11.29143685811220   -1.67700997565876
C          -6.42882939000644  -10.13326297178304   -1.63853982309374
C          -6.19830247705182   -8.82981668801929   -2.13884338175832
C          -7.09827627329256   -7.84872165866815   -1.88468293012257
C          -4.58747174230663  -15.25845185830267   -1.86580494957383
C          -4.45615089842445  -15.51810992730932   -3.16951207652696
C          -4.49895515471216  -16.83440120270009   -3.73677507869937
S          -4.20851201055321  -17.02532583705953   -5.45288930850781
C          -4.72103643092574  -18.05010703981920   -3.11475338969255
C          -4.65332793206943  -19.11660430890070   -4.00626198898121
C          -4.77984550681192  -20.59781113313928   -3.95044928759653
O          -5.03497343994423  -21.29369010462626   -3.00093005011789
C          -4.37697245694401  -18.71884851791202   -5.31856771143643
C          -4.29787196348365  -19.87084367700944   -6.14688853134255
S          -3.99728580971108  -20.25832877886144   -7.77320216817724
C          -4.51998736966310  -21.01147144957923   -5.35658839561105
C          -4.40669976397592  -22.19339013884842   -6.06543298265203
C          -4.10782213755388  -21.97671107160369   -7.40866248441280
C          -3.96632141181212  -22.90072088491138   -8.46426297538380
C          -3.67037508521831  -24.23459156686760   -8.37368719551296
C          -3.97060216122734  -25.21720846476718   -9.40913686745511
C          -4.29156451756158  -24.97646602650920  -10.71854290653804
C          -4.35470602001738  -23.70624113880961  -11.32909420582478
N          -4.42538693811404  -22.70787086202217  -11.89244921474100
C          -4.56935603505227  -25.98782248080683  -11.66325258963577
N          -4.80277130339627  -26.75530400384582  -12.48416291197578
C          -3.87583960701108  -26.52976463411927   -8.78250462082385
C          -3.38688725682361  -26.37424464742571   -7.46563871285197
C          -3.22600492166458  -27.47152610926610   -6.63601315260953
C          -3.55123485183018  -28.72636641979506   -7.12872592195439
C          -4.02027754382197  -28.88344417475236   -8.42520507214980
C          -4.18772191291153  -27.79156958720910   -9.26404525180993
C          -3.10743504960670  -24.96407100625527   -7.24393695929866
C          -2.23754088361991  -24.46862331354764   -6.30884863048310
C          -1.63368393326205  -25.25361007311507   -5.30425901466951
N          -1.12205115083123  -25.84121706378967   -4.46186852399099
C          -1.75858818826095  -23.14270036688724   -6.29409029960234
N          -1.29790127667108  -22.09157736934727   -6.26546227957272
H         -11.72073469725365    5.13017924809176    0.12566623552488
H          -9.49873184809745    6.14713891191787   -0.08528481453016
H          -7.46433231355645    4.82349664061724    0.29223247106256
H          -7.61078974920643    2.44476897451160    0.91100174824163
H         -13.41013698102672   -0.05406518458745    0.90948888546571
H         -13.69800286852130   -2.57624154054119    1.16050279913229
H         -11.03192901183787   -7.98216506961395   -0.22707352075079
H          -9.46163605292115   -9.55498542490277   -0.09609327420748
H          -9.56708513028019  -11.69342550823129    0.43382865813941
H          -8.63567700759643  -14.49138320277327   -0.21774519410277
H          -9.30852065633682  -13.43094651082552   -1.47241047320135
H         -10.66448149497510  -14.00786428335749    1.04053569946027
H         -11.05852889353401  -14.65526872037029   -0.42453071694748
H          -7.72147967995695  -11.84250808288007    2.15725158514217
H          -7.50402364980386  -13.54187616860371    1.70447771020358
H         -10.00552607546081  -12.42778277365297    2.71487459410128
H          -9.00114134668701  -13.45876120677008    3.49793327453194
H          -6.39684259684718  -14.30673417264185   -0.17495041001629
H          -3.88883738757994  -13.98734638926986   -0.35658408219196
H          -2.95083891735104  -13.09705892111224   -2.54938272426767
H          -3.93327321796786  -10.86751241168934   -2.86631300672068
H          -5.30209939907274   -8.62575435035672   -2.70538599716280
H          -6.92897094121442   -6.84605853635241   -2.24982507492827
H          -4.76934826318664  -16.06214112184961   -1.16668415199474
H          -4.28872139473811  -14.70887085304057   -3.86693757401546
H          -4.92048742203843  -18.15964085564916   -2.06542040225548
H          -4.57177683417128  -23.16873208983920   -5.64408855367992
H          -4.18027868167055  -22.50205817292600   -9.44697593397772
H          -2.86999737703051  -27.36003545950900   -5.62467504151904
H          -3.43822955833909  -29.59048075105574   -6.49220923296685
H          -4.26406356867269  -29.86983348928255   -8.78894195179441
H          -4.55896192069430  -27.93360746842457  -10.26542625807583
