91
 SCF done       -181.155939551579          0.000407049975
C          -5.72526527357768    1.24349468939915    5.37668392246897
C          -4.99386568701707    0.86939781831456    6.49448994993915
C          -4.18970156089054   -0.26062663569778    6.47835167057409
C          -4.08529317604935   -1.04464642100923    5.33867367868639
C          -4.80846319495715   -0.67899848145069    4.21639463908853
C          -5.63835981121327    0.46413707180985    4.23385616776641
C          -6.29390723139438    0.58936393351916    2.93805205668110
C          -7.11415037585784    1.61700468219658    2.55543080746799
C          -7.42172846091596    2.72910472504459    3.36938160671403
N          -7.71572434290775    3.66238346247264    3.96924959048708
C          -7.75327229773909    1.75014961000657    1.30440255122544
N          -8.31230370057387    1.93410053819975    0.31807137148202
C          -5.92441434065587   -0.59113033734882    2.16293274279515
C          -4.87325148165200   -1.27226991244231    2.88944266168596
C          -3.94333003605968   -2.13508941053088    2.35993051638340
C          -3.83939423328303   -2.44644407374123    0.99008024002310
N          -3.69828405860838   -2.71349835689449   -0.11762773658883
C          -2.90893632944544   -2.73627768683892    3.10603006396957
N          -2.06169448189278   -3.27987927653902    3.65736160224460
C          -6.54249400951500   -0.96549814471095    0.99461688322022
C          -6.61045615607245   -2.22905918923680    0.38700954527754
S          -7.08054367295386   -2.31210530157060   -1.29875944541657
C          -7.05048000385970   -4.05537166993644   -1.31059590301768
C          -6.73738826164175   -4.52897193810086   -0.04540697449415
C          -6.47495512698480   -3.51893457743716    0.89353502997084
S          -6.09066657597816   -4.01707627901629    2.51904928661477
C          -6.62570204517055   -5.74392653950989    2.28003056373365
S          -6.60888410576031   -6.18293913492015    0.51225696470492
C          -7.30106978278513   -4.74293162278904   -2.51724212410787
C          -7.26135983548486   -6.09276512446341   -2.67588772819490
C          -7.48351484719916   -6.75732153351920   -3.89618768105362
S          -7.77915502706281   -5.92305205406573   -5.41215885618487
C          -7.90313518959842   -7.39238648660808   -6.34134469066405
C          -7.72604700679467   -8.49842688631608   -5.49988862101433
C          -7.49223453498772   -8.12495616898632   -4.14226767692324
N          -7.33362389341059   -9.25725018396213   -3.41293018269488
C          -7.45831509777871  -10.32699270214098   -4.26752937893865
N          -7.33586224601386  -11.63385527702105   -3.76091653358232
O          -7.12530844906912  -11.73063040164593   -2.56177707507151
O          -7.44597300984929  -12.56180348381039   -4.53482452494321
C          -7.70009695645182   -9.90738440245406   -5.55897806546829
C          -8.13057723082524   -7.37370587466703   -7.72456756016323
S          -8.21056938413258   -8.84992186631035   -8.66129025781387
C          -8.46120614626187   -7.97078370276257  -10.15749102483825
C          -8.47959017206698   -6.60630462913675   -9.90985625427403
C          -8.30508907227593   -6.27633348271553   -8.55514639214088
S          -8.31342038623697   -4.58855380646507   -8.12328286576881
C          -8.99801311687853   -4.04689606253389   -9.72797171217996
S          -8.69172696079860   -5.29219653742918  -11.02660792794185
C          -8.67814932481401   -8.66957625122273  -11.35929115803938
C          -8.69496270208588   -8.10370855326035  -12.59873842853900
C          -8.98587379609903   -8.79106422800584  -13.79975656310051
C          -9.77672273484044   -9.89617905369807  -13.96540630204439
C          -9.72034807430827  -10.78263147190872  -15.12342258285903
C          -9.14323978655214  -10.52982973536252  -16.33909514811346
C          -8.51753565180240   -9.32438876606934  -16.72212013675316
N          -7.99701641433535   -8.37839064878390  -17.11324543634381
C          -9.13517697464230  -11.44349689479364  -17.41524504143339
N          -9.09056660260146  -12.13370953320454  -18.33121935011811
C         -10.40079525701092  -12.01407427411169  -14.74455965209600
C         -10.99262905575720  -11.83610244443203  -13.47365695168911
C         -11.68355531446896  -12.87133420704117  -12.86535720734637
C         -11.78718785452889  -14.08148426711838  -13.53436044962100
C         -11.21719842530519  -14.25448228165976  -14.78766827414039
C         -10.51891707381584  -13.22722285416186  -15.40457711456412
C         -10.74592100568660  -10.46979750381710  -13.03736237832761
C         -11.49360722662514   -9.79889441298290  -12.10603311461017
C         -12.49222748691064  -10.40546501014695  -11.31527317332885
N         -13.30456426462694  -10.83733020584567  -10.62885138008970
C         -11.43428546421186   -8.41290177524307  -11.85378330147436
N         -11.48983176070799   -7.29107404659703  -11.61472980428306
H          -6.34712788097792    2.12256366557905    5.41082401185209
H          -5.05680824198656    1.46802078892430    7.39028052020871
H          -3.63613486812920   -0.53623341039182    7.36289351214915
H          -3.46180171193284   -1.92373489575722    5.33923230034418
H          -7.11421044765481   -0.20714132408433    0.47591950348996
H          -7.63832395987572   -5.86007656692604    2.66860595586736
H          -5.93857761420372   -6.39679908681529    2.81434384899332
H          -7.52657101147702   -4.12227641228442   -3.37428622504099
H          -7.04080399852749   -6.72821152716910   -1.82901044291677
H          -7.14980220529560   -9.35818261586824   -2.42662951476579
H          -7.83739066216726  -10.54215578768724   -6.40987760119357
H          -8.52584210743565   -3.11032593219995  -10.01599644182512
H         -10.07516665686466   -3.91279494289451   -9.62338789960002
H          -8.81777546864622   -9.73874291552522  -11.25858434266233
H          -8.37495637051062   -7.07635287519461  -12.70651991820481
H          -8.48204829865842   -8.40787094130679  -14.67708414332407
H         -12.12267428768709  -12.75251746120606  -11.88821437017984
H         -12.31759989437422  -14.89880096240071  -13.07041197562806
H         -11.31275260740502  -15.20408536371348  -15.29144159584110
H         -10.07674107549798  -13.38305388782824  -16.37458915206606
