88
 SCF done       -167.294819980044          0.000400820561
C          -3.72803222135472    3.79268064597220   -0.85405780986538
C          -4.62025400259048    4.50457735575081   -1.64213795198834
C          -5.88592630275465    4.00817119179398   -1.91957718616108
C          -6.29949639649172    2.78658069791457   -1.40965766882077
C          -5.41655076080210    2.06650607053977   -0.62251763144971
C          -4.12359848073431    2.56560892845367   -0.34534736437564
C          -3.41023577216197    1.59761660389483    0.47883378833472
C          -2.17598245903102    1.78265031593771    1.04398348839029
C          -1.41119119623836    2.96072607116070    0.90871549817433
N          -0.73584583880288    3.88640982588172    0.84164648544524
C          -1.50772223916068    0.85347991084717    1.86780629239652
N          -0.91109104518419    0.14335407134983    2.54536893976594
C          -4.25772718196467    0.41446764075921    0.56459700472878
C          -5.57171933271165    0.79399205398212    0.06415242780978
C          -6.76346168377264    0.21767935977103    0.41555322379182
C          -6.87669133047173   -0.83773389113112    1.34402430911026
N          -7.02175790518334   -1.65502921865910    2.13651651940089
C          -8.01965937969937    0.67608327001132   -0.03050998305247
N          -9.06515877643286    0.99592011310549   -0.37981451956160
C          -3.82250791468067   -0.82574427431857    0.94694932841477
C          -4.39330275181161   -2.08282439576564    0.65307880349626
N          -3.97108086089072   -3.21256949361296    1.29612104810723
C          -4.57916476147439   -4.30385230185016    0.76885620046337
C          -5.39474205152525   -3.87312637742859   -0.28567883524701
C          -5.28518660417400   -2.49784264040179   -0.35142341949932
C          -4.36363755660376   -5.58607881067740    1.24889536657040
C          -4.15694510707491   -6.69951428476336    1.68754713897587
C          -3.89158629995369   -7.93872978214058    2.23319202953479
S          -4.60056093091139   -9.42267055437757    1.61813782419916
C          -3.07560869845622   -8.22365436022942    3.30322131031045
C          -2.21345189856911   -7.48143276011102    4.23294444885089
O          -1.96940104687610   -6.30236478584354    4.30183983328237
N          -1.68921218091356   -8.45951683700143    5.07440587138699
C          -0.77641521507416   -8.16302455847638    6.15043526538008
C          -2.12084110456880   -9.75170844571224    4.78366922183885
O          -1.78918871193208  -10.74281833751511    5.38562790531275
C          -3.01965442070035   -9.59376654615652    3.63172802813799
C          -3.78310852354047  -10.40869243707489    2.82553572325663
C          -3.92533867483612  -11.81442049882970    2.91454180689665
C          -4.66328389397432  -12.56232569138964    2.06098658873429
C          -4.82161286664577  -13.96985420548937    2.14829162477369
N          -5.54073242300534  -14.66491393740337    1.23438802683672
C          -5.52756498930139  -15.99307993385936    1.54391157869163
C          -4.77244002588415  -16.14886728108953    2.71966842063228
C          -4.33948918614024  -14.89328865282200    3.09525361663430
C          -6.16573987683826  -16.93701383561904    0.77122989100283
C          -6.77046656885001  -17.64681135695020   -0.02011790258983
C          -7.29234311562128  -18.65573704886791   -0.78627930548460
C          -8.18800740372196  -18.61884029248299   -1.82586807975055
C          -8.66837446571794  -19.83795676912575   -2.46833033146868
C          -8.10319038358310  -21.08430364726429   -2.40574016933305
C          -6.90836676329496  -21.42387191622100   -1.73476636077984
N          -5.93771855454959  -21.78408029793377   -1.23702196574237
C          -8.62164853905090  -22.22350706789780   -3.05906571957144
N          -8.98312686822809  -23.19323258048723   -3.55543685430397
C          -9.84086277138826  -19.47842303234897   -3.24876404916226
C         -10.01463142415659  -18.07829128645003   -3.18150011116312
C         -11.07478594686477  -17.47743050225552   -3.84271488163892
C         -11.95038174531999  -18.27448173458786   -4.56474425625743
C         -11.77642755783782  -19.64877448828436   -4.63138966371482
C         -10.72120135237837  -20.26416017754118   -3.97540926498953
C          -8.94616648187564  -17.50526764430349   -2.36889575852485
C          -8.72563307868201  -16.15765542038358   -2.23153642545406
C          -9.56297525019282  -15.15547829271375   -2.77538934831421
N         -10.18140313610310  -14.26997923031027   -3.16437572353112
C          -7.65276890699988  -15.49490018139440   -1.61876580242208
N          -6.84254487543160  -14.78805863965350   -1.20987793312518
H          -2.74819439125576    4.19334165116961   -0.65335841060179
H          -4.32035003601292    5.45882471179583   -2.04743345102436
H          -6.55944578572118    4.57781010063165   -2.54135723216786
H          -7.28286742687567    2.40716265331025   -1.63598701676355
H          -2.87387683742627   -0.87948862193714    1.46575879341494
H          -3.35156918106698   -3.23260946136048    2.09204506905783
H          -5.98793287334678   -4.50781108119750   -0.91288202600376
H          -5.75942867364545   -1.86185234488440   -1.07286819419382
H          -0.55992661562887   -7.09677900706042    6.11781551248189
H           0.14245266704294   -8.73725195616685    6.02737307292231
H          -1.22766057857257   -8.42224919160652    7.10924956689434
H          -3.38547745043220  -12.27221094302076    3.73177699854492
H          -5.17839040304358  -12.07286568918978    1.24228340299525
H          -5.98166010279526  -14.31088073581335    0.38871765971669
H          -4.58725546535208  -17.07905030079079    3.21915552914195
H          -3.74155261225265  -14.65524219209544    3.95188227934295
H          -6.94920349345979  -19.63744539997570   -0.47740722392904
H         -11.23407875448178  -16.41332322210062   -3.80158674601750
H         -12.77937525590244  -17.81395667028376   -5.07993286904048
H         -12.47050918188425  -20.25032794871197   -5.19793294319610
H         -10.60192147610433  -21.33330774050408   -4.03188437316804
