126
 SCF done       -221.859949423421          0.000697730379
C          -1.58189717571933   -9.56018311706049    6.97636823930882
C          -1.06731437556716  -10.82917316545485    6.75167750284616
C          -1.18551557044859  -11.44123154962887    5.51270945074943
C          -1.80871018353729  -10.79530248573960    4.45493987216585
C          -2.32160310146915   -9.52814086248280    4.66793461303047
C          -2.22047735586413   -8.90847444919176    5.93354863129335
C          -2.89236585140233   -7.61419748479512    5.87877645173766
C          -2.96528349735365   -6.71187242130810    6.91038665747792
C          -2.36527510088146   -6.90125734847759    8.17216619002399
N          -1.91054050001084   -6.98449166791985    9.22353792978417
C          -3.61992481390473   -5.46427494991900    6.87394854501804
N          -4.12995992563034   -4.43608088802741    6.93255339166378
C          -3.49857244224035   -7.50933983683376    4.56283805295468
C          -2.99905672917776   -8.61192950756417    3.76359942928954
C          -2.94985559734082   -8.67482978013425    2.39303019744187
C          -3.27761926148016   -7.60379397556101    1.54071323287158
N          -3.45658466317545   -6.74544252981626    0.79835335212686
C          -2.44181439248859   -9.76954680868861    1.66637843104656
N          -2.06160748662537  -10.62688034462461    1.00410005810845
C          -4.44460258726541   -6.56897182267488    4.21880352424425
C          -5.36836395419623   -6.58905288808532    3.16541621077361
S          -5.90546319489473   -5.03473936998786    2.58378665336132
C          -6.72042303163778   -5.70272146967228    1.23333056183312
C          -6.62177485122584   -7.10740276478930    1.23334987214700
C          -5.92282519599253   -7.61477472303855    2.37358465268632
C          -5.87292822050310   -9.01846421744846    2.56006355669721
C          -5.54166851428958   -9.69144454283095    3.84001679475590
O          -5.07564187386605  -10.80057078460399    3.92867909598772
O          -5.92219022098161   -8.96314594040723    4.90115225627804
C          -5.76151412336308   -9.56906904627754    6.17512202973472
C          -6.28553913402625   -9.84422233327124    1.53404830032824
C          -6.80478143502333   -9.32711342032815    0.34291785510940
C          -7.01643515604865   -7.98066161332849    0.20231846844488
C          -7.34106504227753   -4.85306860172998    0.25432753692784
C          -8.47320742061800   -5.25396698270480   -0.42094660939039
C          -9.01434158575633   -4.44434592623834   -1.43888659269216
C         -10.08011507717416   -4.63141369623441   -2.30708001431758
C         -11.12811841366988   -5.68572996730320   -2.44060148536976
C         -10.83494772075608   -7.04524068442004   -1.80312736132753
N          -9.54306987624807   -7.57310583504857   -2.22303485064861
C         -12.48116346020464   -5.15610578135970   -1.90097032438750
N         -13.57272940475541   -5.86453738475041   -2.55084232128305
C         -10.08834646779684   -3.48937236925915   -3.19788678648759
C         -10.86684008717630   -3.21365255641752   -4.25831647359804
C         -10.65391499146744   -1.98349213982721   -5.07979822156077
C          -9.62244294679398   -1.04795950004177   -4.54094874975345
C          -8.84104926413012   -1.35182847740489   -3.48713597020486
C          -9.01053745571990   -2.57853491371026   -2.80023046438828
C          -8.36072115560856   -3.17044201219920   -1.73757502116373
C          -7.24877383912960   -2.75273607934546   -0.96970980087971
C          -6.76172192537104   -3.56542330255698   -0.00171863249234
C         -11.99019943555204   -1.33245616782179   -5.31761261211126
C         -12.92870827382408   -1.90200215630853   -6.08109659123768
C         -14.23403387519955   -1.37041995723382   -6.31116197617513
S         -14.48552536534859    0.33169062594281   -6.24518215864183
C         -16.12070331846173    0.21393415013124   -6.81978837889357
C         -16.46763512410918   -1.14169171845232   -7.00630712784176
C         -15.40210824186477   -2.04290629635897   -6.69772304653024
C         -15.63896389075559   -3.44238120936966   -6.79627225090449
C         -14.71550524872029   -4.46607149500841   -6.25281716907656
O         -14.02443467389361   -4.33434858811162   -5.26583638191165
O         -14.77605834245517   -5.60838980026894   -6.94206114598991
C         -13.99392995075408   -6.68870523831778   -6.45083113885935
C         -16.84956877861799   -3.87427402380429   -7.29468718131991
C         -17.86111523517608   -2.97528224720034   -7.65777371921781
C         -17.69156789403434   -1.62646803742354   -7.49545638683563
C         -16.99170352324765    1.30189419848734   -6.95825097747231
C         -16.70831659384641    2.64675388466102   -6.98447058485561
C         -17.66198757455947    3.68771863184121   -6.63539221182577
C         -19.02713222530712    3.57714708492164   -6.55895429472999
C         -19.76664530100150    2.41583767499887   -6.86050695918290
N         -20.42600147321638    1.50461018023021   -7.09645968069342
C         -19.88841033382939    4.63794240318614   -6.20962522981659
N         -20.64709953749276    5.45428021553031   -5.93412999698799
C         -16.88708173102309    4.89582504738071   -6.37433178687097
C         -15.53456730618194    4.64998073561162   -6.70258335970852
C         -14.57403809511637    5.63158027448316   -6.53088555598152
C         -14.96981186200748    6.86239821065285   -6.02795396446051
C         -16.29810975685366    7.10992040832631   -5.71360893543204
C         -17.26945831064979    6.13378738154064   -5.88389377074191
C         -15.43483543068074    3.30028789778673   -7.23647141997983
C         -14.45524559458943    2.85227478204221   -8.08554683885720
C         -13.26563740015394    3.55556435793789   -8.35660208633181
N         -12.26751395529235    4.07095379232878   -8.59349997370841
C         -14.57843481735872    1.67790418315280   -8.85546854448472
N         -14.67097735095432    0.75444584073570   -9.53151088395855
H          -1.48541212064361   -9.10484550955946    7.94807662763230
H          -0.57364051308959  -11.34758444284062    7.55961949256077
H          -0.79000730270533  -12.43477130408602    5.36697969975217
H          -1.91023407624220  -11.28315751776038    3.49997633958787
H          -4.49598488735712   -5.68216608003002    4.83779595168208
H          -5.80778351733846   -8.76569698190586    6.90670927566634
H          -4.80539342462249  -10.09388896208880    6.23282488116549
H          -6.56651862114156  -10.28536507642550    6.35123561652867
H          -6.20653013277736  -10.91169832970730    1.67654338814113
H          -7.06847620113771  -10.00476885161914   -0.45402083222600
H          -7.45637643024705   -7.58559593985988   -0.69944474228467
H          -8.95311326084559   -6.17986016566461   -0.16344970517737
H         -11.27397265662320   -5.85775962131505   -3.51486401882714
H         -11.67984665009229   -7.70135749642244   -2.06667150252441
H         -10.82216903165438   -6.95571378284979   -0.71325318538977
H          -9.48504828450204   -7.58108523361957   -3.23642276441630
H          -9.44701075902096   -8.53255315881952   -1.90576942941842
H         -12.52783098019578   -4.06722475517893   -2.05534581190165
H         -12.52972178052353   -5.34390227641569   -0.82535727246846
H         -13.70718556355003   -5.47880924434876   -3.48186383671024
H         -14.43682809264508   -5.71647035553855   -2.04078547426523
H         -11.67896487675526   -3.85625182434668   -4.56662661533048
H         -10.29330958446488   -2.33905393978982   -6.06114440577006
H          -9.51449295099382   -0.11120712403449   -5.06634240890556
H          -8.08410916868700   -0.66052109974562   -3.14699865835416
H          -6.79139695455722   -1.79625575078770   -1.17370312011596
H          -5.89918512376554   -3.27594741749744    0.57958643530212
H         -12.18936850757898   -0.41481722230952   -4.78273281916336
H         -12.71279325280921   -2.83772229853962   -6.57715769687549
H         -14.27549690558338   -6.93190047714330   -5.42384643236560
H         -12.93263267278820   -6.43122717291855   -6.47422333677007
H         -14.19255783232062   -7.52827628166220   -7.11137366652217
H         -17.03276707539743   -4.93422227858827   -7.37656627523270
H         -18.79225429731796   -3.36055049111710   -8.04269425075004
H         -18.48743414480551   -0.94112266156789   -7.74085333877580
H         -18.03816658691912    1.02912984970916   -6.95613865954039
H         -13.53875379434450    5.44648909045533   -6.76813962922869
H         -14.23206497550902    7.63609872473708   -5.87991170092107
H         -16.58424683752465    8.07618552224386   -5.32727860461794
H         -18.29564869641100    6.34473723322158   -5.63189110978476
