110
 SCF done       -215.602434555812          0.000286682062
C          -2.23931062392835   -2.32380706023261  -10.21564770305993
C          -2.72391390584386   -1.28424761848271  -10.99566176925315
C          -3.53587814575728   -0.29977809246876  -10.45174541781435
C          -3.88065724143492   -0.32205595886716   -9.10829159663172
C          -3.40244290483002   -1.35481732500021   -8.31993439321083
C          -2.58279643312762   -2.36354571129338   -8.87333267425530
C          -2.24993273473387   -3.32342458695976   -7.82869711919856
C          -1.36978010335425   -4.36403674375588   -7.95465638946768
C          -0.65033759380880   -4.65236962403991   -9.13498301832793
N          -0.03045846693802   -4.94656117480913  -10.05505640198819
C          -1.00758162103047   -5.27479075789964   -6.93910773086761
N          -0.65384556361821   -6.05357074515288   -6.17257154604534
C          -3.02678598037893   -2.94814545460477   -6.64808061524007
C          -3.57056863689798   -1.62658527147131   -6.90028735847703
C          -3.94738054337602   -0.70598317015492   -5.95714130489041
C          -3.82259662697100   -0.90559780129605   -4.56972111203734
N          -3.72536475637960   -1.03155499879589   -3.43254999914452
C          -4.42351344486399    0.58626095940125   -6.25960656260401
N          -4.83598189928229    1.64210650297901   -6.44009487112309
C          -3.22779738921263   -3.78771286994646   -5.58472264445476
C          -4.20917978396634   -3.76540082867462   -4.57282160511615
S          -3.93059040484696   -4.70299531388271   -3.13307293133326
C          -5.45296348943307   -4.27460100796631   -2.45047132296131
C          -6.15981697341557   -3.44614481609654   -3.31575894614787
C          -5.46975534212719   -3.16575678183554   -4.51828330079974
O          -5.93166446941253   -2.46465655317563   -5.56531829108611
C          -7.47247253285098   -2.82177285326441   -2.97807972879163
F          -7.59575863518259   -2.47192693398713   -1.69619864533001
F          -7.70397764522129   -1.69611714152893   -3.68939307460168
F          -8.53158298471627   -3.61992939538894   -3.25825633570622
C          -5.80858901620436   -4.77370477200612   -1.14343454536840
C          -7.10520590987771   -5.08621622384921   -0.81040559094785
C          -7.40846520816824   -5.52020552610813    0.49476096710326
C          -8.62744130704816   -5.81956447499616    1.08749465140050
C          -9.95389807394209   -5.82392681159906    0.41143126163189
C         -10.43234534707319   -7.25927549533134    0.09011217721699
N         -10.40232705028790   -8.11673104086140    1.26665468594349
C         -11.05244019155780   -5.07347820313560    1.18396590707231
N         -12.10607414754421   -4.69969926279147    0.25510016714724
C          -8.34274705568787   -6.13986696128544    2.46764387651149
C          -9.15547216049471   -6.45077568940902    3.49446933013089
C          -8.62702553554797   -6.69603279808913    4.86122843669735
C          -7.12916818649966   -6.69028427822799    4.96671447449706
C          -6.33335165276774   -6.36862871871054    3.93171775537176
C          -6.88885460266517   -6.05761048759356    2.66665815446697
C          -6.33249454217191   -5.66780061778362    1.46617421268763
C          -5.00059644112238   -5.40436140844895    1.06921803503032
C          -4.75241647699352   -4.97372940519395   -0.19158012408020
C          -9.18887588244790   -7.93474536947046    5.50620155672482
C          -9.87892773982537   -8.87750223683767    4.85960415236726
C         -10.43780864970839  -10.04784009324190    5.48770048402165
S         -11.90698083522712  -10.73085232346677    4.88344895666576
C         -12.00830677091380  -11.86143817106284    6.19203475857113
C         -10.88593747037604  -11.77046273612609    6.99660355190236
C         -10.00017850170743  -10.73843281469470    6.60341188388334
O          -8.85437856677436  -10.52365208994904    7.27361713416974
C         -10.50634044851170  -12.69511171661746    8.10757210166445
F         -11.24095205927754  -13.82391997247306    8.13437569919594
F          -9.23401550039431  -13.09600176850484    8.01218488600251
F         -10.64137214779494  -12.14106001014029    9.32682442528946
C         -13.15870750840975  -12.70810195688232    6.26036193527828
C         -13.85444512511481  -13.07221400928550    7.36546923614297
C         -14.80414984353825  -14.18805349698366    7.41302511886648
C         -15.46676950133225  -14.74957621774133    6.35917644641680
C         -15.38200786792118  -14.30912672439012    5.02015488849422
N         -15.36439291935391  -13.99286400412056    3.91697001868934
C         -16.37670470362555  -15.82331578551873    6.48210020067710
N         -17.12804369739780  -16.68949117268560    6.51368899553605
C         -14.91634621707434  -14.57434442589522    8.81056158051190
C         -14.23793621955438  -13.62262759886638    9.60673172907002
C         -14.16643178864684  -13.77177290045015   10.98198547043048
C         -14.78273308847553  -14.87157253071571   11.55899797380827
C         -15.46089179965423  -15.80070934031468   10.78120067529707
C         -15.53449032424805  -15.66499088494574    9.40327577810647
C         -13.71486895181556  -12.58167717916961    8.73942317287353
C         -13.38714185249138  -11.31418781350229    9.12475304011725
C         -13.39084567435452  -10.87931843374584   10.46992404874207
N         -13.39082712460661  -10.46502761243400   11.53894584905481
C         -13.10288576336881  -10.25029926344104    8.24381901636881
N         -12.91018040583700   -9.33108046623805    7.58387762151659
H          -1.61465307890648   -3.08208628920068  -10.65787787852504
H          -2.46615514284444   -1.24616095117809  -12.04300984864823
H          -3.90710040092005    0.49515368788438  -11.08038625708791
H          -4.51788471737694    0.44455349048478   -8.69857859855392
H          -2.56946410311381   -4.64437361627266   -5.51534881295720
H          -6.81444372063715   -2.10452643135962   -5.40746618462535
H          -7.89611233935293   -5.02921588490750   -1.54023079702726
H          -9.84288291838854   -5.31593929512074   -0.55210504108085
H          -9.81776840652874   -7.65318418924553   -0.73409258609894
H         -11.46502274189298   -7.17845575322071   -0.25382285772720
H          -9.44841349442077   -8.41362589388685    1.44812833804394
H         -10.96140746910261   -8.94650452677271    1.10230392961553
H         -10.60327381071173   -4.21339255235113    1.70866110501119
H         -11.49934266462639   -5.74021822042933    1.92248054576780
H         -11.76681442818949   -4.00930193525442   -0.40704676297846
H         -12.89055554141145   -4.29267155017004    0.75144965961755
H         -10.22441940657865   -6.51348613128375    3.37255094024062
H          -8.98836922838680   -5.85127138943644    5.47659134251367
H          -6.71813777233405   -6.93219390684972    5.93519029711863
H          -5.25983580079040   -6.34919051604124    4.05068348637733
H          -4.19555264980453   -5.53593481648995    1.77628916916003
H          -3.74497477882383   -4.74651028563258   -0.50592442472978
H          -9.01071344665859   -8.00232500548259    6.57126838078336
H         -10.11637018504009   -8.75615959722674    3.81140889670949
H          -8.28638079244940   -9.91563177798121    6.78293628797903
H         -13.48459786821246  -13.09217441270524    5.30245665495172
H         -13.63017409263793  -13.06335511045539   11.59214916445703
H         -14.73010592786136  -15.00709851500813   12.62830430960397
H         -15.93365674782895  -16.64804354726168   11.25365646591694
H         -16.05462159167589  -16.40224265195850    8.81403926793179
