146
 SCF done       -233.575197849759          0.000434154892
C           0.91135617344594    5.06011901681823    4.95155041270892
C           1.84960734253769    5.48451957565381    5.87989179129592
C           2.55679189040665    4.57385352898660    6.65290630541470
C           2.35106428607528    3.21001501448404    6.51358229153196
C           1.41559126938253    2.77355554726832    5.58964810946450
C           0.68700372641245    3.69946901122572    4.80712580771240
C          -0.23602299228997    2.97226935479412    3.94711269912757
C          -1.03443427442007    3.51817910382483    2.97729106459544
C          -1.07134182028398    4.89180870705554    2.65919716738315
N          -1.14901029999067    5.99383035714778    2.34688729636406
C          -1.89584676799385    2.78596313303989    2.13598993132198
N          -2.60863852760979    2.24650338061071    1.41476032179847
C          -0.15464119451888    1.56940095867374    4.33852354097566
C           1.01350648210552    1.43249895750682    5.20412842746394
C           1.73543074857037    0.28536459944253    5.40189962549999
C           1.47789726275683   -0.91942667106727    4.71843636452467
N           1.36133701433575   -1.88900307101291    4.11431814399724
C           2.88379879729065    0.20969547956681    6.21499095241665
N           3.81242846197603    0.09344049949048    6.87960071560024
C          -1.07638949786851    0.60296495695178    4.06515572060394
C          -1.26736239224812   -0.59055611242276    4.85349184735948
C          -1.60139349307338   -1.85544474809311    4.33861746880320
N          -1.57081462497084   -2.31936953878210    3.05637172400550
C          -1.23147805081932   -1.54606330119404    1.89168523499566
C          -2.46199112009060   -1.11032384094796    1.09097793860130
C          -2.05473145711312   -0.54351701534309   -0.26139040965727
C          -1.89273415646717   -3.66542916860922    3.06131002014981
C          -2.15408782644047   -4.06978111904485    4.39226127313357
C          -1.92370774471207   -2.92156092643992    5.21846034356896
C          -1.91552777988858   -2.75019779759462    6.59045565398908
C          -1.55996857400921   -1.51109063718048    7.09843284552997
C          -1.23195862466818   -0.46997199743074    6.25098436142195
C          -2.53856391662128   -5.36756231005470    4.69590981041674
C          -2.67224583981143   -6.26847909190420    3.65993582410517
C          -2.40688139936016   -5.87667969123943    2.35462678401344
C          -2.00153068207864   -4.58932770634612    2.01885247695589
C          -1.68808913073201   -4.33764300688235    0.59711037896765
C          -0.39572138198295   -4.14820919372421    0.19799289288374
C          -0.08335763212792   -4.02248001729997   -1.18119686897993
C           1.11458875326394   -3.88400472576531   -1.86124528068913
C           2.49951861768264   -3.58437059915586   -1.38353098634048
C           2.68507766794592   -2.05250601752327   -1.29651911737642
N           2.61035256834866   -1.44799213449856   -2.61476481932845
C           2.90262596076093   -4.20359639268772   -0.03739135705984
N           2.65747481149897   -5.63484058420686   -0.02156415703638
C           0.79151774337218   -3.94779078919468   -3.27437206519600
C           1.58075989128356   -4.00454444572065   -4.36300271411525
C           1.00069752650319   -4.24119267390631   -5.71930769893892
C          -0.47449256843754   -4.02897170625661   -5.80057261288502
C          -1.25252085062070   -3.98703531679283   -4.70233848602058
C          -0.66495325226574   -4.03258650029897   -3.41440278697353
C          -1.18671123374735   -4.10446055724835   -2.13812456382159
C          -2.51430543374172   -4.26480623970325   -1.68289172675417
C          -2.75287117805278   -4.39151813312236   -0.35189110089099
C           1.36331125784535   -5.69924904259918   -5.97268587705002
C           0.46856585684496   -6.67825708615041   -6.02954517453438
C           0.80094370322651   -8.10544934585845   -6.12534782780652
C           0.29971903400440   -9.06163688811521   -5.23170849489758
N          -0.47135176199677   -8.90848701035947   -4.08988123301138
C          -0.62473033794644   -7.64679529732747   -3.39695730286000
C           0.19221222180671   -7.59361982312178   -2.10371928065522
C           1.67703478797332   -7.77482189518592   -2.39237757562894
C          -0.74080699084889  -10.15159467495793   -3.58001549415413
C          -0.11555018305107  -11.13750120036006   -4.38804043589924
C           0.55444185791104  -10.43455549504757   -5.44340079877460
C           1.34374599577684  -10.86696156864502   -6.50057621812306
C           1.88095523531029   -9.91778191782431   -7.34513404170628
C           1.60727521143175   -8.56755552307121   -7.15809103631561
C          -0.20973645394510  -12.48409199179485   -4.08683401307077
C          -0.93390560899403  -12.86712837621376   -2.96852767782273
C          -1.53673993721907  -11.92022566038550   -2.16486204657836
C          -1.47271824361834  -10.54558141335247   -2.44009234766973
C          -2.24446153866515   -9.61989857964884   -1.66360841675997
C          -2.56481540129849   -9.64397064716827   -0.33910901411485
C          -3.62878749028112   -8.83079710257209    0.24375512805442
C          -4.29342435640116   -7.78260094366123   -0.34040855229849
C          -4.09163373019984   -7.29841096042842   -1.64723504210657
N          -3.98917829502436   -6.84665418374616   -2.69994130011004
C          -5.26111361569290   -6.99341516950219    0.31709011157314
N          -6.04168728144256   -6.29399315818461    0.78559904341566
C          -3.86350143159823   -9.33724494356507    1.58636110204535
C          -2.91225403892989  -10.34387135103001    1.86896027908879
C          -2.94315213573879  -11.01858514156454    3.07886852236024
C          -3.91911793949803  -10.67998766839825    4.00390544790281
C          -4.84510745882379   -9.68232396241586    3.73270174246448
C          -4.82819640058646   -9.00238173105347    2.52472435454314
C          -2.00240474090669  -10.45381720031644    0.73765389619947
C          -0.75619316434175  -11.01902360498999    0.78311379823272
C          -0.26404436870594  -11.74439831512633    1.88889365521285
N           0.18450530103203  -12.36082544308003    2.74704898231729
C           0.24258917705276  -10.88288342806876   -0.20425173548100
N           1.13538071733301  -10.75819569985255   -0.91495635631201
H           0.36956699697744    5.78231555945539    4.36320379222216
H           2.02847029328907    6.54167096347427    6.00352367624522
H           3.27639200475588    4.93008101273713    7.37405733009011
H           2.90072053450916    2.51039689451359    7.12245504926477
H          -1.83205999683052    0.80885583828987    3.31906680008105
H          -0.58812497623688   -2.14865385477416    1.24764133914941
H          -0.65513937987543   -0.67484446428052    2.21823713020772
H          -3.02957540181504   -0.36111303029202    1.64551033046853
H          -3.10757834615708   -1.97772488804029    0.94092880324813
H          -1.41350467351281    0.32535562323027   -0.13293663106756
H          -2.93477298463809   -0.23413290455811   -0.81733858676493
H          -1.52271609135431   -1.29266493411793   -0.84470420278220
H          -2.16600930960661   -3.56798449367758    7.24783149129273
H          -1.54499221071091   -1.34706244701236    8.16498552980283
H          -0.99762065096877    0.49649879125233    6.67532404840968
H          -2.73090093079636   -5.65748648014973    5.71711060140763
H          -2.97465762024450   -7.28623213143180    3.85831107610057
H          -2.48749464987569   -6.60329504294837    1.55821563124516
H           0.38628666618700   -4.13857535106744    0.94276765811832
H           3.19671362269952   -3.95552270843316   -2.13915072370287
H           3.68021376911605   -1.84287821671295   -0.89407733256184
H           1.94010510964526   -1.65033680540644   -0.58747720243261
H           1.67206320203061   -1.54205462083456   -2.99026627040320
H           2.82399747381656   -0.45841706252832   -2.55954801049699
H           3.97913253976660   -4.05512476981050    0.09040011195093
H           2.40507316410968   -3.65871485229484    0.78287861785134
H           3.01892190806345   -6.04008317799652    0.83510707419883
H           1.65971087603023   -5.81582865601954   -0.05197258322385
H           2.65828429855647   -3.97609084066810   -4.28915749783089
H           1.52051939219834   -3.62520875436310   -6.46329491557484
H          -0.89876541033113   -3.98057121489338   -6.79188950026710
H          -2.32575722955476   -3.89594563034390   -4.78407273047863
H          -3.31940480097979   -4.31301164967650   -2.39989468173859
H          -3.75784445143821   -4.53291684178985    0.02057872082130
H           2.42228083681248   -5.91771971252610   -5.99297408124696
H          -0.58916077429690   -6.44296896512765   -6.02260462330980
H          -1.67827490137588   -7.41832235970853   -3.21940118623990
H          -0.23590118583693   -6.86695509094718   -4.04810463459606
H          -0.13761404169501   -8.36015068840047   -1.40132955246665
H           0.01212644319717   -6.61925750775719   -1.64761830395241
H           1.87944713973582   -8.78987933101700   -2.72453322288304
H           2.26581084232270   -7.58139664608855   -1.50120305803633
H           1.99655166710909   -7.07848469769597   -3.16488754817795
H           1.53091727094780  -11.91879609110080   -6.65035142626402
H           2.50692176858662  -10.22020288873173   -8.17080166300542
H           2.00847059990839   -7.84457590520921   -7.85301647903925
H           0.26864071675974  -13.21983270236852   -4.71422001701607
H          -1.03687582253167  -13.91304694676436   -2.72345271773988
H          -2.13376208300857  -12.24722494264131   -1.32533333289314
H          -2.71749913054579   -8.84493737485516   -2.24561192043388
H          -2.23604116434212  -11.80072573170970    3.30135113857535
H          -3.95731394086851  -11.20261443641247    4.94743933614171
H          -5.59307527560563   -9.43164635514397    4.46943164860174
H          -5.55639042727646   -8.23270444455200    2.32919211084254
