132
 SCF done       -227.613506399028          0.000745384831
C          -5.43535320330967  -15.80521026600721  -10.17381194851237
C          -6.56639643157339  -16.58017610372961   -9.96317271968868
C          -7.55160495515208  -16.18309975991399   -9.06991514314912
C          -7.43717918633005  -14.99508819188882   -8.36370134333206
C          -6.31004537269695  -14.21458340716397   -8.56184526084087
C          -5.30227773924655  -14.61988292068581   -9.46821785007904
C          -4.24063913455958  -13.62289783445356   -9.47045226482075
C          -3.17022979089676  -13.57792466015055  -10.32113404052429
C          -2.92678373793613  -14.52795632096608  -11.33664031620328
N          -2.67376834797033  -15.26781440077570  -12.17615134212976
C          -2.19618184172430  -12.55690565590899  -10.33315447751467
N          -1.38293399811066  -11.74814593437310  -10.39119652208586
C          -4.55582633068278  -12.67564680828466   -8.40371369815527
C          -5.93495534770258  -12.92539274194678   -8.00510950085896
C          -6.78872571383437  -12.01999325872139   -7.42788588986670
C          -6.48505003828415  -10.65913420753029   -7.23699580654924
N          -6.32919527936894   -9.52463456260186   -7.13976637969980
C          -8.10702304750840  -12.31792571254858   -7.02618755203564
N          -9.16767284182196  -12.51105898430126   -6.63228535663422
C          -3.65572535464716  -11.82489946134879   -7.83244691083883
C          -3.79237942413634  -11.14060445220570   -6.59396151482350
C          -4.56506314638672  -11.59099914397248   -5.46233758576187
C          -4.53780121888198  -10.66260260696624   -4.47510753928391
C          -5.17671671372997  -10.74812394758552   -3.23851760555693
N          -5.73678333252933  -10.82434598988138   -2.23712120246712
C          -3.70945938882518   -9.49471065865788   -4.91257913119868
C          -3.24104577125379   -9.90880174124224   -6.27732574353292
C          -2.54220019319132   -8.94121891456214   -7.02871714593675
C          -2.65952691243994   -7.53438332398803   -6.58986403249896
C          -1.82630293759715   -6.76064400275054   -7.46402132137690
C          -1.28412997149683   -7.61852709335583   -8.38766544006553
C          -1.73368399342191   -8.96456072376945   -8.13381863663210
C          -0.42166425134736   -7.25872589604110   -9.43746266112258
N           0.28276760507952   -6.95597292630312  -10.29003840264035
C          -3.55860802851678   -7.14655439253977   -5.66474015224879
C          -4.46306113172123   -8.14111815263044   -5.02516975359335
C          -5.02833003279393   -7.72422698734255   -3.69890278024568
C          -6.37299737897246   -7.84998253953368   -3.47112589075829
C          -6.90287116660922   -7.50978836970882   -2.21004106057014
C          -8.20111203087647   -7.54055726360730   -1.70694315597518
C          -9.48243369393045   -7.90633423539986   -2.37106247145084
C          -9.64715720357148   -7.24181983380493   -3.74804290075460
N          -9.23373392915645   -5.84997764128807   -3.68908827234504
C          -9.65968605367044   -9.44096380705212   -2.50519549748737
N          -8.63297889759381  -10.01809290142395   -3.34582041817003
C          -8.11852942125515   -7.12571112196588   -0.32237218017317
C          -9.05742133262207   -7.04191723438990    0.64113002832358
C          -8.69916917576914   -6.66431361305950    2.02799336859986
C          -7.30474568585193   -6.15506784935296    2.19987134588610
C          -6.37092895266840   -6.25921936228210    1.23050683892635
C          -6.72453075087476   -6.78697281996867   -0.02720735732096
C          -5.99053250302284   -7.04417081871192   -1.18094965956085
C          -4.61297319510275   -6.93530587432575   -1.44256367685065
C          -4.14969134004741   -7.26367684490458   -2.68341470883377
C          -8.76280366542183   -7.85738867979855    2.96624028302906
C          -9.12476236976618   -9.09927702868781    2.65302490287522
C          -9.05548319104236  -10.15530716391957    3.64380078388470
C         -10.04839515776707  -10.98446293176826    4.05617794920496
C          -9.58461540745276  -11.69469855572019    5.23010686708797
C         -10.33347158952982  -12.62338831379067    5.95624004507831
N         -10.94963671853951  -13.36509072564497    6.58223713679107
C          -8.31435999781273  -11.26337710807657    5.54519132582091
C          -7.91323158290925  -10.31901557319733    4.55851002542137
C          -6.68169547714258   -9.70024320988314    4.38973586851674
C          -5.75104391223477   -9.25854179635957    5.44199910174476
C          -4.69337177317686   -8.62802781132850    4.81975604768997
C          -4.89667719930931   -8.69238227662418    3.40685455013677
C          -6.12028150751349   -9.28884531910034    3.15262092718661
C          -4.00705791799059   -8.21147061858227    2.44032203966808
N          -3.28264444024628   -7.80674911771963    1.64524990682588
C          -6.12701549654315   -9.25089848689060    6.80079777203337
C          -5.61291322667044   -8.48463184618446    7.80544402001088
C          -6.17009716671331   -8.43382690948158    9.10069971776543
C          -7.43096241717545   -8.80949587178791    9.50200799538700
C          -7.76790883349435   -9.13223347968823   10.88484952523044
C          -7.10629755736140   -8.74011731003644   12.01840520771059
C          -5.97856417640137   -7.89370388740908   12.06152227919461
N          -5.07050409151432   -7.20058907220568   12.18069719676498
C          -7.51143130969706   -9.08630236912429   13.32492648046272
N          -7.78399425448468   -9.32811495491769   14.41347786512796
C          -8.97218004390215   -9.95273555483582   10.84532185125748
C          -9.46847291333551   -9.96229172195512    9.52262892529498
C         -10.58818902472838  -10.70572809949612    9.18987628345150
C         -11.21385229196060  -11.43841040446360   10.18731916982893
C         -10.73871904891226  -11.41739117803364   11.49081498299838
C          -9.61663351695919  -10.67692982092014   11.83501385008934
C          -8.61593902501919   -9.11135240723611    8.70681890952626
C          -9.01193021613687   -8.52797552943155    7.52975382350823
C         -10.22043595037015   -8.81410147052210    6.86411245675662
N         -11.16101705595513   -9.00127580749267    6.23179522752307
C          -8.29589001468662   -7.54577423617652    6.81931706836681
N          -7.81032343263554   -6.72640431027139    6.17644669223649
H          -4.67962263395186  -16.13014691568559  -10.86987342062405
H          -6.67816492510505  -17.50768768779252  -10.50327887857906
H          -8.41998408894093  -16.80608146087112   -8.92034239401356
H          -8.20645003478164  -14.69837947288240   -7.66894818984907
H          -2.71172991638665  -11.68033763645802   -8.33492876058937
H          -5.04719381768986  -12.55103272590283   -5.39973680751516
H          -2.86730481565048   -9.34859561701371   -4.22618618489422
H          -1.69270734751650   -5.69654525074333   -7.41937859066830
H          -1.42820954643204   -9.80910307436866   -8.72361839650872
H          -3.68635545649675   -6.10610127791740   -5.40172636511907
H          -5.29851337990489   -8.31092241144270   -5.72492268847880
H          -7.02142848449983   -8.23425951982593   -4.24095413505906
H         -10.29865395753065   -7.55361358407937   -1.72999211777039
H         -10.69693914988917   -7.37452921318126   -4.06302904977722
H          -9.01934064136709   -7.75522913552227   -4.47561218239657
H          -9.31098236396748   -5.42243637978451   -4.60491442895448
H          -9.83027416236303   -5.33004335813293   -3.05325377146225
H         -10.63059549631211   -9.62138897160100   -2.97461725330618
H          -9.68476879101307   -9.87107031946466   -1.49102052123040
H          -7.77185118785189  -10.14592427919697   -2.82354255359782
H          -8.92307566710890  -10.91880477398151   -3.70632212395304
H         -10.09496464047613   -7.28725440603930    0.45830188111278
H          -9.41705420810393   -5.92278673258443    2.40638490445065
H          -7.06024175985844   -5.76782619523900    3.17692301370615
H          -5.35666797821364   -5.93103810089749    1.39873698304637
H          -3.94077460883977   -6.61995088763180   -0.65979516840900
H          -3.09468192474872   -7.18610082022933   -2.90768153297728
H          -8.43307283965323   -7.62896258706395    3.97015171581227
H          -9.52475720952476   -9.35183783328601    1.68024956382252
H         -11.03453662757185  -11.07976213707091    3.64412934395590
H          -7.69408976037578  -11.68726820145688    6.31350235685886
H          -3.84725487276018   -8.16838239030350    5.29442732382788
H          -6.52609534724342   -9.49428723122460    2.18048219012245
H          -6.96162630216971   -9.88788097212939    7.04996331154490
H          -4.71239013929079   -7.91126232074740    7.63816317769887
H          -5.49633009049641   -8.10261626479464    9.88000185506832
H         -10.95939015452937  -10.74269026998584    8.17862314682935
H         -12.07598896480249  -12.03688988244965    9.93807903349518
H         -11.24302613044421  -11.99293346783455   12.25190275172766
H          -9.25636836857688  -10.68267100012475   12.85059854405306
