99
 SCF done       -191.135465341784          0.000840204825
C          -1.68418275025034    0.38558177863017   -5.62146224454621
C          -0.74896778862021   -0.09544506104344   -6.52726729424072
C          -0.78036112473930   -1.41332369980563   -6.95696267260284
C          -1.75752594825988   -2.28737751588817   -6.50268857214331
C          -2.69616937310564   -1.81730597744950   -5.60059716679282
C          -2.65730116881208   -0.47914498615312   -5.14884421137664
C          -3.73167334106191   -0.27860175729830   -4.18138482132555
C          -4.01904212015933    0.90236205913181   -3.54313986957837
C          -3.33621239342477    2.11433579245392   -3.77544960699835
N          -2.82943544326362    3.13556067191176   -3.91166828101888
C          -5.03181225411167    1.09720650641108   -2.58231864246861
N          -5.82630786874180    1.33595068086707   -1.78727296212600
C          -4.37608831389793   -1.56517629576477   -3.99281988710661
C          -3.84008419056135   -2.47376059611889   -4.98494678083970
C          -4.42442431411700   -3.63504290138806   -5.43471434505430
C          -5.70834060019538   -4.07496449460521   -5.06399327949147
N          -6.77027079181353   -4.45578999974278   -4.84588495134068
C          -3.84304665706016   -4.49701238876712   -6.38381513968774
N          -3.40764693736813   -5.26745121878973   -7.11561988332396
C          -5.30509118563613   -1.83866050630156   -3.00370045078025
C          -5.63746615697108   -3.07306836722031   -2.44630047601472
S          -7.18047278825756   -3.24189465458656   -1.66580003642237
C          -6.97339893875688   -4.93659488111579   -1.36004994895627
C          -5.69021207415132   -5.35679915731727   -1.80563240341604
C          -4.93382151885149   -4.29831502148667   -2.38173795927673
C          -3.60486343827852   -4.52592372915810   -2.75841562537798
C          -3.08679103226843   -5.79501699091118   -2.70256744106221
S          -1.40858675831355   -6.05525831416272   -3.23072005209755
C          -3.88926154446750   -6.88630459057619   -2.29147744112454
O          -3.43497950515731   -8.15629908598666   -2.32964911975532
C          -5.15645248453962   -6.65052916443141   -1.80293315657945
C          -7.96868507842646   -5.68706769678647   -0.72014312822213
S          -7.60131438316597   -7.20190204227141    0.04715956796018
C          -9.22644499406379   -7.44566555484010    0.61310886477236
C         -10.03719752933142   -6.34504030733676    0.25397306520648
C          -9.33621814106732   -5.36932966148240   -0.51550699883114
C         -10.04443937473840   -4.26866261437597   -1.01814205510439
C         -11.36581775171445   -4.10041136235615   -0.69539052995174
S         -12.24331465478641   -2.68763919887870   -1.33884287434576
C         -12.02580458905695   -4.98727263465157    0.19168966963881
O         -13.28856858744158   -4.76679573351102    0.60205893362910
C         -11.36478585732945   -6.11126447017056    0.63472033469167
C          -9.51016646272917   -8.63744112138584    1.29187440087445
C         -10.74974292412280   -9.19907336764028    1.46533117817717
C         -11.01599718741817  -10.36901202525530    2.18975443228349
S         -12.47115361674643  -11.24167694178383    1.83709746730874
C         -12.09030305466234  -12.53508522768391    2.94035703616358
C         -10.86649345662964  -12.25946948355528    3.60269854060455
C         -10.28045424804951  -11.02448063419579    3.20383979080000
C          -9.14499721817573  -10.55790954966257    3.88152639122021
C          -8.57715968182292  -11.33373762837238    4.85702181164035
S          -7.12709151546437  -10.73645265167019    5.71795855441330
C          -9.09246921879992  -12.61395059898844    5.18374130315210
O          -8.49305697658660  -13.39547339688656    6.09632429333023
C         -10.25300639338559  -13.04951194915995    4.57861365205156
C         -12.80795860309196  -13.72437712503595    3.03864475296274
C         -14.05873649407544  -14.03641849296045    2.54348355896393
C         -14.48823120834742  -15.38076695387739    2.20646207374106
C         -13.90092671531955  -16.56530605353977    2.57697644028700
C         -12.77369493789523  -16.69173101510257    3.41302213803293
N         -11.86072859427426  -16.86848633804203    4.08842332378101
C         -14.37696225798825  -17.83711692239046    2.19816626335378
N         -14.70691392543299  -18.90392719235870    1.93046873650500
C         -15.67484256145994  -15.24549513978650    1.36715664005448
C         -16.03748306628275  -13.88120703204986    1.30865466897442
C         -17.12177841323475  -13.46821597870021    0.55471465963155
C         -17.84459762409715  -14.42526395486430   -0.14310068230333
C         -17.49731885163619  -15.76634851416722   -0.07955300318390
C         -16.41291355077704  -16.19130201207331    0.67517520645446
C         -15.12450230547858  -13.13219932462354    2.15973168011613
C         -15.38787652604646  -11.91027729295017    2.72842315275846
C         -16.47731951465848  -11.09370895308453    2.37035354223163
N         -17.33388860455026  -10.37738423848498    2.10246258333797
C         -14.64990686106810  -11.38630523714429    3.80835820858342
N         -14.09786481788669  -10.95393460327686    4.71792654305141
H          -1.64088778424114    1.41250728083456   -5.29875234267266
H           0.01591940711498    0.56969054568830   -6.89789143951079
H          -0.03660083508321   -1.76761121747077   -7.65414629692433
H          -1.76978447034121   -3.31117504013433   -6.83965156443658
H          -5.83832400361332   -0.99440903940737   -2.58605863060074
H          -2.97080017168095   -3.70960971042552   -3.06474960574127
H          -1.08636869452277   -6.91732265190162   -2.25884154187440
H          -2.64182314458245   -8.20852664286944   -2.88542620984642
H          -5.72049572995165   -7.50084573764293   -1.46184437092087
H          -9.57679406663241   -3.55752606270457   -1.67707283752971
H         -13.31967618315184   -3.37100961887114   -1.74683575339958
H         -13.56450710744516   -3.86963859982506    0.35294284567762
H         -11.88122259051812   -6.76797371187818    1.31261925633636
H          -8.64436494459492   -9.19905519709079    1.61633578286712
H         -11.58925523009897   -8.78067309240949    0.92865304211360
H          -8.73983801564008   -9.58042952913015    3.68016245023496
H          -7.64264182002392  -10.84766250156616    6.94677004582767
H          -7.63029045813380  -13.01831389953819    6.33732019023458
H         -10.65863649172741  -14.00187087383337    4.87763400779154
H         -12.24962163946566  -14.53600521661243    3.48471720135196
H         -17.39643786311346  -12.42738377740335    0.49555915572407
H         -18.68780454439346  -14.11878474198214   -0.74311547366345
H         -18.07568406769948  -16.49466460731495   -0.62727583535710
H         -16.15822041451475  -17.23766426270926    0.71010846165214
