110
 SCF done       -191.234723621980          0.000412395729
C         -15.36339377736498   -4.59684205079422    6.46659152200898
C         -16.44334803010909   -4.53863682712027    5.59761549986628
C         -16.46456385225375   -5.28801886216546    4.43094401958029
C         -15.40824959752798   -6.12527434003127    4.10374529536782
C         -14.32540321493612   -6.19135793782582    4.96403002886577
C         -14.29668893933358   -5.42153143038014    6.14776547727710
C         -13.03474808175142   -5.66714855743586    6.83764837661300
C         -12.68635598849031   -5.15294483966860    8.06091042540385
C         -13.52276488010689   -4.32495617270025    8.83806244672271
N         -14.14486691571801   -3.64865207889788    9.52686989632508
C         -11.47562342692012   -5.38434681375227    8.74558503863701
N         -10.52097702084457   -5.51605872839994    9.37126543235004
C         -12.23795644821914   -6.51960340829950    5.96999726074466
C         -13.10683220346711   -6.98611688531608    4.90582346682571
C         -12.95049450187909   -8.12979247372330    4.16199251488220
C         -11.90476032934446   -9.05801592906432    4.33335363359805
N         -11.10901177928638   -9.87767966298586    4.45045661303656
C         -13.86329815203872   -8.56542532377204    3.18199227880162
N         -14.54617016503578   -8.95647489565696    2.34517322373691
C         -10.88873354128681   -6.73975419066784    6.13705491059571
C          -9.93719828197116   -7.12783739279443    5.18367377016769
S          -8.35931547705033   -7.66129070820807    5.77975338391271
C          -7.79446373082869   -7.85537490139459    4.17152898532418
C          -8.78416948773358   -7.48122469691689    3.23006996793655
C          -9.98413165446445   -7.07955851472030    3.79162825957970
N          -8.24034280615448   -7.62765620410601    1.99156045258977
C          -6.96085241980997   -8.11013762342587    2.11505870882921
C          -6.66153617707482   -8.25413558071107    3.47000988528751
C          -6.10741638280198   -8.36054076389912    0.97946492442121
C          -5.01566417786153   -9.18746413138767    1.10591658531048
C          -4.15120799369137   -9.40309135811443    0.01347405761126
C          -2.99358586545852  -10.15608576826693   -0.11362181745328
C          -2.32750266919122  -11.03239083315725    0.89455358319139
C          -1.80437207849132  -10.21800697123266    2.09354169236047
N          -0.70767679732640  -10.93393213488145    2.71717752764957
C          -3.26426136013523  -12.17064547943592    1.33833458352676
N          -2.54176700357699  -13.15069497489427    2.13619676881012
C          -2.49027689625741   -9.91786588223328   -1.44616992591185
C          -1.35904963156278  -10.32459199473608   -2.05080380960208
C          -0.99720197280667   -9.85517522983448   -3.42032129905870
C          -2.05039395035253   -9.04427120725208   -4.10073406516138
C          -3.17450334065580   -8.64226633843493   -3.47965528958695
C          -3.42787544368903   -9.02467160110384   -2.14061099449525
C          -4.43086738857014   -8.71887536477437   -1.24546062835095
C          -5.57274954009759   -7.89149218974954   -1.35160084297463
C          -6.38317450996064   -7.72447709185634   -0.27771944698219
C          -0.46616770725869  -11.00422897935676   -4.23554607985725
C          -1.07213585492872  -11.51551769202343   -5.31018009100431
C          -0.54288795832898  -12.57116814184500   -6.12466552907937
S          -1.44623382804056  -13.02472036191296   -7.56415438425231
C          -0.22593521035442  -14.16576227445011   -7.99210845306935
C           0.80959185269813  -14.18613017494628   -7.02872516042446
C           0.62675421107145  -13.28316554634603   -5.97767112551128
N           1.71505764269209  -15.10655057538963   -7.42353996126823
C           1.32777381454296  -15.63492192907056   -8.64001697137730
C           0.09606385514012  -15.06118152038723   -8.99825618743496
C           2.09017010948640  -16.66115645942107   -9.23086731128772
C           2.03740521115905  -17.14676224846739  -10.51132986574629
C           2.51798965382302  -18.46220871221583  -10.91068950752475
C           3.35063080713063  -19.29560897104738  -10.20886847396059
C           3.93570361624009  -19.00339268058827   -8.96035942924443
N           4.44568212596527  -18.82597387793179   -7.94590265495995
C           3.77587274030097  -20.56051379954879  -10.66649640815820
N           4.16260807890041  -21.59680467065803  -10.97363079527165
C           1.93924807253212  -18.74214627527412  -12.21903006050089
C           1.25466990265791  -17.59149951603134  -12.67179364071402
C           0.59355577003849  -17.59492859886359  -13.88841382893431
C           0.61962731376823  -18.75229636888507  -14.65239852262823
C           1.29906142675405  -19.87999793426776  -14.21482434251880
C           1.96502690670305  -19.88802966021166  -12.99800219357730
C           1.43376889292760  -16.53640504852979  -11.68617101111334
C           1.32809691006448  -15.19259731708640  -11.93350384556482
C           0.80931748043898  -14.65124139982178  -13.12702574807250
N           0.37496596370192  -14.15677998719632  -14.06749380187335
C           1.82491052224119  -14.19549823374571  -11.06970502165518
N           2.27005213965834  -13.35213939706762  -10.43059057718921
H         -15.36527485178271   -4.00440894057971    7.36633795904284
H         -17.27742168113708   -3.89616744563459    5.83543620750149
H         -17.31240573239105   -5.22091958274766    3.76635266423031
H         -15.43387585001359   -6.69918861711992    3.19160786354819
H         -10.47519336760482   -6.52103205332549    7.11280219840121
H         -10.83510122242017   -6.72171656342457    3.24026394959748
H          -8.72866158179663   -7.51221356222572    1.11991469706089
H          -5.72927189596316   -8.57666798576597    3.88494587925478
H          -4.82180021504779   -9.67354907002332    2.04768769044231
H          -1.44779745235232  -11.49208007159613    0.43330610335578
H          -2.63968822117447  -10.00600599289603    2.77978476445496
H          -1.41945170839008   -9.25794268775132    1.73186879445620
H          -1.04613676417582  -11.84615884819029    3.01319844303978
H          -0.37868996332119  -10.43326920379653    3.53573701564441
H          -3.72843914204363  -12.60628168038710    0.43644915971170
H          -4.06767377567702  -11.77029900077386    1.96018954334923
H          -1.84700282453579  -13.62173216203557    1.56485375603998
H          -3.18036668546242  -13.85493492093940    2.49006875768106
H          -0.64748185915266  -10.97445613309382   -1.55985410858850
H          -0.13294469389140   -9.18034067617559   -3.27055278389714
H          -1.83386710116447   -8.74526147776196   -5.11485761944088
H          -3.89480914320410   -8.02183009404818   -3.99278660316397
H          -5.78069191686354   -7.38972821754235   -2.28522309045409
H          -7.23608125524522   -7.06584592485096   -0.35274252484781
H           0.47096399498812  -11.41534397938063   -3.88795854232639
H          -2.01956957643277  -11.10922496049423   -5.63673507944282
H           1.31115945369519  -13.14954699378594   -5.16132978611231
H           2.59203636348730  -15.31222125520558   -6.97358549571799
H          -0.49222143035474  -15.30605526954778   -9.85963322098020
H           2.75269569242391  -17.16881644072868   -8.54165321589500
H           0.05826053601639  -16.72598328935772  -14.23559782226650
H           0.10303593841101  -18.77301549245855  -15.59972995045147
H           1.30937594294908  -20.76857222559743  -14.82729789398862
H           2.48426541141674  -20.77474448201557  -12.67387910364756
