112
 SCF done       -200.613514291615          0.046185229096
C          -7.40024780818058    2.56292892809923    3.19459851728715
C          -7.49040053999319    2.63679862351518    4.57610759321529
C          -7.65374188413127    1.49249605668999    5.34552096903526
C          -7.72559549735706    0.23992085381061    4.75641153473633
C          -7.63463696348609    0.15117225869834    3.37606256419550
C          -7.47634395373875    1.31726372760162    2.59019236552543
C          -7.41859531767629    0.93812441869370    1.18763285762872
C          -7.10099645727827    1.74949486075560    0.13491294762958
C          -6.81740085044494    3.12781739073815    0.25524552023445
N          -6.58648080283790    4.25164525052495    0.28840874849401
C          -6.96590200629065    1.30905826739660   -1.20240995634222
N          -6.82971096728167    0.99217915469509   -2.29087767303905
C          -7.73352372929679   -0.49026931684208    1.12862586045983
C          -7.64135552580423   -1.00613045520096    2.49670139392483
C          -7.40103724526106   -2.29945010824043    2.86421268305630
C          -7.14499811831030   -3.35258754196197    1.95944074429263
N          -6.86253541938145   -4.23604798405604    1.28547557034130
C          -7.28479251247619   -2.72619373586285    4.20456903039360
N          -7.19761846294644   -3.12901951628887    5.27623275840401
C          -8.17113935925301   -1.14479563552598    0.02525628789363
C          -8.81539184002380   -2.42755663074500   -0.00615299551277
C          -9.86508915914453   -2.78550432243557    0.78318879037464
C         -10.38759777751785   -4.05223296259763    0.31486230558786
C         -11.50291461317316   -4.69669050758878    0.86742825670486
N         -12.41804064183475   -5.21043890634821    1.32532085363398
C          -9.63396204112570   -4.47734086700073   -0.74349368491351
C          -8.58881028270569   -3.51886070124692   -0.97935908612099
C          -7.50497313040685   -3.61136116251292   -1.81627488947955
C          -7.17554798873792   -4.69522771324415   -2.79375366687829
C          -6.12825385370251   -4.24245353614417   -3.55287125021761
C          -5.71400021236442   -2.95767787132132   -3.05797063137907
C          -6.51424711741212   -2.59831980828637   -2.00206914706259
C          -4.63839771331742   -2.22445430189098   -3.57349970195504
N          -3.74639853689653   -1.63969238025891   -4.01455531059409
C          -7.74760323042849   -5.99009616989163   -2.85443346602640
C          -7.58940959377195   -6.84596964361354   -3.90162965461774
C          -8.10016981183183   -8.16062363236376   -3.94031291742604
S          -9.01474189443286   -8.81802849681725   -2.61346105910160
C          -9.13925960914347  -10.33000011481685   -3.40844255293786
C          -8.50561919396955  -10.37232777734968   -4.61411830192585
C          -8.52939861765160  -11.58444441862857   -5.48552172717977
C          -7.90314670829557   -9.12314999958845   -4.94505150538734
C          -7.19204706206988   -8.81513747319108   -6.14950647689672
C          -6.43456135681749   -9.66642933813280   -6.87992665365924
C          -5.70728242288082   -9.27404231235574   -8.04467818635718
C          -6.04154989722182   -8.24833374289896   -8.86692630559814
C          -5.29594062032109   -7.84928845834809  -10.01785543996845
C          -5.86208887591491   -7.52367686149581  -11.21544431839273
C          -4.82106328505138   -7.39851294992707  -12.20675946923404
C          -5.05262860916824   -7.16554448109367  -13.56915248857683
N          -5.26359117972371   -6.98735613717274  -14.68429478898234
C          -3.60095616048506   -7.57952054870978  -11.60629457116502
C          -3.81709870692211   -7.76912170470063  -10.19985080423265
C          -2.87848045312381   -7.65234222512685   -9.20603232208909
C          -1.41410048660496   -7.48335648798876   -9.36449588896954
C          -0.84699408844758   -7.66010837586653   -8.12972600346651
C          -1.89411839911067   -7.84176850126437   -7.15577519750835
C          -3.10620740338509   -7.79401903995890   -7.79099893569967
C          -1.70429747637063   -8.01303224440819   -5.77581773534361
N          -1.57205881957001   -8.17399146938889   -4.65078159331864
C          -0.70176992618067   -7.05129988641616  -10.51794919299860
C           0.62334930115764   -7.27519431763393  -10.72858756450657
C           1.29935701217684   -6.68217035134501  -11.81576715474326
C           2.63847959317772   -6.70729152403006  -12.09494124991736
C           3.20183393134652   -6.32601401216385  -13.38774470519232
C           2.61978173439962   -5.53611495458547  -14.34183969466895
C           1.35751471652644   -4.91151320609253  -14.23228651651921
N           0.35697249377631   -4.36326092859862  -14.20254594304389
C           3.23585507102929   -5.20189429985585  -15.56746223123824
N           3.68301144080485   -4.87285936107539  -16.57491564985772
C           4.52487641528160   -6.92894684466094  -13.46242858580275
C           4.82941597745110   -7.51837681338333  -12.21446396105105
C           6.02818851056541   -8.18556855904433  -12.02494172652705
C           6.92251115268527   -8.25586651645077  -13.08332803538490
C           6.63009446047515   -7.66798987605008  -14.30496489945587
C           5.43242550653299   -7.00046458203827  -14.50896971976756
C           3.72992443512816   -7.25228984276246  -11.29761376799132
C           3.81662867093215   -7.30583379109441   -9.93229597835276
C           4.93239522853408   -7.81968180727910   -9.23363539702516
N           5.79482841147765   -8.24387910002437   -8.61071666691253
C           2.87261476391388   -6.77118075639195   -9.03001057438973
N           2.17603337219843   -6.32753273066827   -8.23331713150159
H          -7.27907897436915    3.46079533407402    2.61109894911947
H          -7.43498960002079    3.60075789736664    5.05795938708320
H          -7.72664306704421    1.57683572511755    6.41908483829962
H          -7.85874710844000   -0.64005099260324    5.36454709962014
H          -8.16504448580800   -0.61535246257180   -0.91955320870831
H         -10.29815815287876   -2.21121227646394    1.58239279265406
H          -9.81457525580542   -5.37513127249242   -1.29853426914313
H          -5.62034636561637   -4.76651033709402   -4.33923932293465
H          -6.40473502475612   -1.70137667201506   -1.42769516291413
H          -8.28898805233645   -6.34580540763191   -1.99137963663956
H          -7.04100550279859   -6.51299349627101   -4.77034176326240
H          -9.68902695755883  -11.12153666436585   -2.93806542225995
H          -9.37018386333559  -12.21804341230168   -5.21823884701895
H          -7.61748130961987  -12.16749821984089   -5.35812994326071
H          -8.61522098117034  -11.30128937534156   -6.53198702095082
H          -7.22710407267321   -7.77887595716322   -6.45911334842398
H          -6.26999915370777  -10.67431706947740   -6.53145386061119
H          -4.83696683180302   -9.87082204977107   -8.28768970322539
H          -7.00162675632796   -7.76492879722603   -8.74058669301889
H          -6.91262931998729   -7.45628896410561  -11.43114687101236
H          -2.65556929966171   -7.57604441591293  -12.10810484077324
H           0.19352293486383   -7.55748007956043   -7.88126605660332
H          -4.06084940497242   -7.85054985920841   -7.30991677290830
H          -1.22747209393361   -6.41302781510075  -11.21698071434819
H           1.15592288484740   -7.94339209250837  -10.06896153290143
H           0.66095007896566   -6.19149469559935  -12.53831027673752
H           6.26631211525198   -8.65397546427861  -11.08440948135169
H           7.85777803152951   -8.77742191632964  -12.95045887258013
H           7.34232652320613   -7.73290066839840  -15.11351918356477
H           5.21824908944605   -6.55519566726680  -15.46635571403311
