85
 SCF done       -195.082446219847          0.000979244827
C          -8.60312657052332    2.12988276270809    3.98937445906877
C          -8.70260023102907    3.27742984900035    3.21759339980840
C          -8.61324294493565    3.22151401675957    1.83219673263023
C          -8.43134205080885    2.01427416657965    1.17504843140060
C          -8.33442572224328    0.85932034919861    1.93404367335420
C          -8.41323614746990    0.91567065696900    3.34690290341836
C          -8.24882058564815   -0.42275968082527    3.88543013348765
C          -8.46531042200152   -0.83312886792830    5.16670952411768
C          -8.88760609422582    0.02605167420057    6.20732383148915
N          -9.22926507969090    0.67564128722538    7.08776482797596
C          -8.35136116311943   -2.17394213852130    5.59930948208537
N          -8.28134455404116   -3.25188005468262    5.98481009566318
C          -7.82038342758127   -1.26442858269218    2.75837181669286
C          -8.15885138416382   -0.52337563987221    1.53246419924619
C          -8.46194659278551   -1.05562108242561    0.31277115026185
C          -8.51046399859342   -2.43354195356066    0.03130673117860
N          -8.59034977431739   -3.54974215600533   -0.23134688866346
C          -8.85894980413926   -0.27595987534946   -0.80006886899924
N          -9.19473555273827    0.30351373380789   -1.72955909927813
C          -7.08634685878341   -2.38920330590237    2.87802023827470
C          -6.41497658307349   -3.06120486241262    1.79346352222553
S          -6.66861633996057   -4.75817347208701    1.53983232794239
C          -5.69028793530053   -4.76151236560430    0.09525512196630
C          -5.09320388163316   -3.52683036659353   -0.08131484150710
C          -5.51815692975676   -2.56164555332889    0.87471651357943
N          -4.89826636309027   -1.27021164442487    0.99645140351730
O          -5.58355901249252   -0.35121616296653    1.39625765142549
O          -3.72013868986239   -1.21762193962253    0.75037759195445
N          -4.36295855844286   -3.18746075897065   -1.25778688485337
O          -3.71105676425649   -4.07039614078983   -1.77666783243278
O          -4.49987386213376   -2.06157655632630   -1.67875991536313
C          -5.72830821779760   -5.89590927132723   -0.75722380205553
S          -4.38710498637065   -6.52702014402245   -1.67390972819685
C          -5.33062481297519   -7.85187286169537   -2.30115168523173
C          -6.66000658008617   -7.77345763589310   -1.84525394866368
C          -6.86446222326475   -6.66724755512590   -0.97265892462505
N          -8.17154513088322   -6.61099501114447   -0.62785035266056
C          -8.80327843652563   -7.64783522684003   -1.26386200246998
N         -10.19411646742537   -7.83488180650647   -1.08489074951914
O         -10.75589472808989   -7.03681385414794   -0.35795405590231
O         -10.71740143936734   -8.76567997116398   -1.65602292742079
C          -7.91747773513172   -8.39605066113421   -2.01226777954172
C          -4.83873567722106   -8.85338721879452   -3.16915204031748
S          -5.83100277453760  -10.25389541086808   -3.48345491983840
C          -4.73665431474515  -10.87610874129433   -4.67739041243720
C          -3.61635880013051  -10.07679122251323   -4.76581291596336
C          -3.67562480820582   -8.92766108312407   -3.92855147512282
N          -2.71967240813323   -7.88357203369459   -4.03413382636523
O          -2.55732172001610   -7.17768083633851   -3.05376695897115
O          -2.16538752569678   -7.74502977126355   -5.09866753409626
N          -2.39640648216434  -10.50565807210267   -5.39438524301476
O          -2.47867123402602  -11.15808136203673   -6.41413519181885
O          -1.37589111055233  -10.24878452200362   -4.80482292865560
C          -5.05069670102239  -12.11306757630382   -5.33821264518245
C          -4.96384196183921  -12.37462486396422   -6.66051636742871
C          -5.02549387399667  -13.72642612873255   -7.23676581138604
C          -5.61076032530785  -14.82481189578454   -6.67907979204023
C          -6.30688625810832  -14.83176098253820   -5.44919279312631
N          -6.89039061387864  -14.88942125658446   -4.46316173290362
C          -5.64180538302303  -16.09785500718198   -7.29408483875919
N          -5.70116379807457  -17.15231243194269   -7.73999139722688
C          -4.35837913373469  -13.65109036741304   -8.52428900836866
C          -4.10267287226334  -12.29368119748581   -8.83250339681197
C          -3.44250291649595  -11.94780198960721  -10.00027517099019
C          -3.04892511632352  -12.96112154472228  -10.86092700210521
C          -3.31083021772603  -14.29329050404509  -10.56661982627701
C          -3.96421955275262  -14.65354675096126   -9.39827932527236
C          -4.63409019781275  -11.46341697566775   -7.76699789164171
C          -4.95795611320691  -10.14254080996353   -7.86770448370865
C          -4.70472782728439   -9.36341961079593   -9.02138868384033
N          -4.54290631356231   -8.68889412212262   -9.93358407321291
C          -5.64782375511039   -9.40461433300431   -6.88512353445977
N          -6.22272940444976   -8.76368866307290   -6.12553387513043
H          -8.66026078203552    2.19106512647900    5.06404744216935
H          -8.84320256504021    4.23008211519336    3.70461066677803
H          -8.68077576641998    4.13180389954193    1.25674467521438
H          -8.34614919187692    1.98470139074376    0.10120308496207
H          -6.96774511101053   -2.84481169296249    3.85227800801062
H          -8.65617476517062   -5.86401931109425   -0.14430370026912
H          -8.17775745678361   -9.25281661427700   -2.59850549603851
H          -5.38993135875279  -12.89973115755028   -4.67665449074176
H          -3.21847672816079  -10.91934601945888  -10.23064158699611
H          -2.52647201989580  -12.70899530527042  -11.77078510917603
H          -2.99374110454974  -15.06346440706018  -11.25276921684913
H          -4.14630932226826  -15.69258207476112   -9.17726465565677
