120
 SCF done       -206.504258989319          0.000435210047
C          -8.34547508367941  -17.71227333854581   -3.93551855961203
C          -7.19014494653673  -18.28648373855158   -4.43898866813532
C          -6.07256045982645  -17.51900777833585   -4.72960051324746
C          -6.08510217771675  -16.14761044298868   -4.51815773561785
C          -7.23464301797229  -15.57396358283380   -4.02133646298535
C          -8.36950089457793  -16.33986154772924   -3.72311985164654
C          -9.41995302144350  -15.46432557656216   -3.21268476658019
C         -10.64358436145359  -15.87893713327260   -2.73750064029054
C         -11.08701165534124  -17.21481260612310   -2.75156350300175
N         -11.52354786134373  -18.27779747338178   -2.74538863100793
C         -11.60873196451768  -15.04837412571598   -2.13478617288146
N         -12.43335648582834  -14.44906408252339   -1.60415591470829
C          -8.93511632232590  -14.11100680161930   -3.28913084197258
C          -7.47195174491053  -14.13638565598995   -3.66220048118352
C          -6.57632760313132  -13.73587767139998   -2.44503702254625
C          -6.38552070534277  -14.86932350034933   -1.56263516331729
N          -6.24210990320607  -15.76492274436067   -0.86981740895450
C          -5.29459048178357  -13.25324927938471   -2.90720467847779
N          -4.30330238345026  -12.85176416568341   -3.30857161517430
C          -9.68655854366840  -12.97978008179697   -3.14754523806083
C          -9.31473441795719  -11.63624903046540   -3.30338435988306
S          -7.69858911185342  -11.08125398072895   -3.69662478269216
C          -8.13774135931476   -9.42530632645437   -3.68190840283168
C          -9.53302243723077   -9.27330308634899   -3.40004993852191
N         -10.02212888765193   -8.05693798130108   -3.35145463375920
N         -11.27635489337309   -7.83925998194922   -3.12241956531101
C         -10.19986831297617  -10.54604835953108   -3.19015789997841
S         -11.83716130322739  -10.73313529813448   -2.84627851120001
C          -7.22255934775985   -8.39353937049897   -3.91387059175631
C          -5.90037962375517   -8.61552588611962   -4.17871170750044
C          -4.88654311171807   -7.64629263960812   -4.41078662907565
C          -3.60641612468303   -8.09594443610377   -4.70450757583637
C          -2.56464179742688   -7.18890747393860   -4.93964669951990
C          -1.21820625952631   -7.37925273713219   -5.24413160408433
C          -0.48110608256831   -8.65696264470239   -5.44833343182068
C          -0.36673613248809   -9.43930567367400   -4.12144602064365
N           0.78570388226951  -10.31231349031167   -4.18626707788606
C          -1.11688451693521   -9.52022991687036   -6.55495365556556
N          -0.23451612715298  -10.61811058978993   -6.91345510645699
C          -0.62201217868302   -6.06443195003195   -5.31500002256284
C           0.65056400437023   -5.67746748601746   -5.52869967461088
C           1.03617869753200   -4.24106154936254   -5.55567694414397
C          -0.08752907161169   -3.28765332119851   -5.27618049988700
C          -1.35130924247367   -3.69006140862300   -5.06248061815611
C          -1.67445123401150   -5.07005138470835   -5.06869826646511
C          -2.84496729740124   -5.75902335294503   -4.84305113556794
C          -4.15972897480176   -5.32332904668428   -4.54681591082337
C          -5.14195879825629   -6.23318889500341   -4.34512196384245
C           1.65655592350719   -3.82938159259220   -6.87200581129656
C           1.67753549988144   -4.58046524211896   -7.95966406890134
C           2.23234872697726   -4.13698070774949   -9.27786244861392
S           3.66955064972741   -5.19330273366077   -9.70825643276232
C           2.66681657076683   -6.28813982209658  -10.65540004915815
C           1.38264723899053   -5.67068769869751  -10.97377737245644
N           0.56328716693465   -6.28643137755711  -11.78540153566849
N          -0.58957007342034   -5.79264575861506  -12.14851777092957
C           1.19442186685476   -4.40515536459524  -10.32245215598227
S          -0.05008120253896   -3.34095127710078  -10.51090123347725
C           3.14315026610075   -7.51544036814022  -10.97222573423755
C           2.43278560013959   -8.55144518020603  -11.63680880520960
C           2.92707653985073   -9.80055566872299  -11.76552203888154
C           2.15354212429606  -10.90519259524567  -12.26716496262509
C           2.64045210414013  -11.90326448139776  -13.20049584747865
C           3.85182932118006  -11.88038264891341  -13.83459479687405
C           4.80062442248907  -10.84548937727037  -13.68489252900741
N           5.60462777688098  -10.02871177358790  -13.62472801227734
C           4.29193270466861  -12.87277811880670  -14.73579151454014
N           4.70292089465864  -13.65146950553068  -15.47166321459482
C           1.56642216051031  -12.87582866103863  -13.38525054122684
C           0.47160977749237  -12.45975243960530  -12.59352799015794
C          -0.70517948095175  -13.18033309438110  -12.60113614423109
C          -0.77847975648153  -14.32700650626551  -13.38930990987145
C           0.29656698613865  -14.73889587953971  -14.15329524907918
C           1.48496758942252  -14.01227783658706  -14.16297411335732
C           0.86738348291290  -11.24000877722991  -11.89079844352625
C           0.08119316174968  -10.58089811177827  -10.88148222175388
C          -1.11489220487552  -11.14046558714968  -10.36944556642667
N          -2.08140784678391  -11.54232243106223   -9.89963807917041
C           0.32620913058854   -9.43014889008121  -10.25718346802204
N           0.42323684217373   -8.55364945408830   -9.44191665505159
H          -9.20206554021774  -18.32736879789022   -3.71588485627616
H          -7.16142999754541  -19.35258506458715   -4.60540924968932
H          -5.18342558499108  -17.99053104156747   -5.11977194934221
H          -5.21466353611746  -15.54498525787898   -4.73467404888966
H         -10.73647895990501  -13.09980280323958   -2.90962450483859
H          -7.05640375426596  -12.93269297129572   -1.87004618332480
H          -7.24755795919714  -13.46042656115248   -4.49459025780048
H         -11.55365821511928   -6.87097744009272   -3.06996557983493
H         -11.92322489240840   -8.62050841539751   -2.94397489831301
H          -7.63676166014516   -7.39772080966299   -3.86510865905416
H          -5.57210573155449   -9.64908671368797   -4.22014259044653
H          -3.41977202835849   -9.15835987497007   -4.73764891619912
H           0.54406222898108   -8.43020325033336   -5.75734647073411
H          -1.31565836426724   -9.96575300257937   -3.93447344487896
H          -0.21079281750593   -8.73074849231593   -3.29966837746033
H           0.67426940782559  -10.93869276501985   -4.97969188432941
H           0.86346557090551  -10.86547517052051   -3.34040126266238
H          -1.36263099363765   -8.86812715219968   -7.41235926581047
H          -2.05010266170495   -9.95865535462403   -6.19885144608665
H           0.59510505536798  -10.26442875094938   -7.37963474128822
H          -0.70701624237118  -11.25160557443908   -7.54923749994620
H           1.44810148394203   -6.39304379118352   -5.67717712198410
H           1.81379187177276   -4.09163910815327   -4.78837289798945
H           0.17270771515543   -2.24017529698563   -5.27226849138579
H          -2.13283832115830   -2.96987722536322   -4.86936410356908
H          -4.36318055318318   -4.26451917408326   -4.48257949729374
H          -6.14263484289077   -5.90232081131239   -4.11743107742520
H           2.05493227375519   -2.82430210759760   -6.89348889899968
H           1.28184181989864   -5.58741114376693   -7.95177386703416
H           2.54592715529600   -3.09364019944968   -9.24789788804954
H           0.10583254176674   -7.60148403761131   -9.52142403437424
H          -1.08094621157554   -6.32353600513301  -12.85004456902521
H          -0.86277661130231   -4.83729398458116  -11.91696312903506
H           4.13991282279476   -7.75795749170838  -10.62784915212892
H           1.46391254438216   -8.30609924014222  -12.04591202546512
H           3.94552928200093  -10.00695416187930  -11.46257409826531
H          -1.55960669230362  -12.87520811024727  -12.01941201558626
H          -1.69388695985853  -14.89899057128213  -13.39946973352795
H           0.21931602727656  -15.63220308484953  -14.75366442038317
H           2.31530704369965  -14.34278160108549  -14.76595507418487
