94
 SCF done       -165.301719563178          0.000928626271
C          -6.25673389057095    4.07376194250373    2.24229274234618
C          -6.06261643443757    4.63461417651882    3.49653413898874
C          -5.55341739988381    3.88387160659520    4.54529334028896
C          -5.21394960369241    2.55046604730405    4.36755170235593
C          -5.40359017715033    1.98089438549068    3.12022916915002
C          -5.93218809651064    2.74032289569496    2.05310678060692
C          -6.05017671491814    1.88165000574582    0.87990180835550
C          -6.44212452421631    2.29231381522658   -0.36832540652628
C          -6.75782123787989    3.62739987277104   -0.69810082372509
N          -7.03092960693991    4.68815955974726   -1.04238424237821
C          -6.56078556196592    1.47882179486151   -1.51424581950219
N          -6.68110411123694    0.89277463314433   -2.49511400441798
C          -5.69413668894592    0.53530317776768    1.30487721146725
C          -5.12702066765128    0.63776346393787    2.63158052553443
C          -4.27307979604418   -0.26096382384114    3.22526408273435
C          -3.78424922829842   -1.42524077740256    2.60164271255382
N          -3.31930918166960   -2.36652115617972    2.13648570154284
C          -3.70632808323362   -0.08581196248131    4.50347261553412
N          -3.24283381173615   -0.02216432021017    5.55217785862174
C          -5.92144956444532   -0.59046254092655    0.54569778951243
C          -6.03924199593716   -1.93423396168233    0.92825690403459
S          -5.84870801568062   -3.13003653280236   -0.35029345872152
C          -6.18276810173193   -4.46201497381920    0.72555651241154
C          -6.45042415003888   -3.97650400943549    1.99354578480965
C          -6.37889445562963   -2.58635333112179    2.10853372131419
C          -6.85245835826768   -2.15105623645415    3.45601260123488
C          -6.79504217202602   -3.44796551416667    4.28363367935497
C          -6.86983512438406   -4.61232687994088    3.27794986570032
C          -6.17487182159196   -5.79368841197257    0.24623303926188
N          -5.97724717520602   -6.07513418900183   -1.08935490459495
C          -6.04403192206820   -7.41916790642388   -1.26258034310981
C          -5.98682443223286   -8.43525440110866   -2.20913138812523
C          -6.17868182238330   -9.63197374808366   -1.50529365350673
N          -6.34296285704867   -9.35028848430157   -0.16246186198648
C          -6.27911015567606   -8.00544660978197    0.00962471069072
C          -6.36740734292933   -6.98869098166732    0.95329889062308
C          -6.22509992685096  -10.96921784428562   -1.97017952567907
C          -6.23919571445561  -11.33517436411375   -3.27739876648930
C          -6.31143002656520  -12.67111587713358   -3.73887276080590
S          -6.66848182529963  -12.95433205242876   -5.43018732417488
C          -6.63828104645528  -14.70111539894108   -5.22787112566712
C          -6.31592957133426  -14.99463727544892   -3.91319779480556
C          -6.16005659112782  -13.88128924384154   -3.08596153522802
C          -5.84866102932357  -14.30808372363770   -1.68728387575796
C          -5.47305371831684  -15.79502738547521   -1.85654094426567
C          -6.15779095513638  -16.26508799235455   -3.15415466900208
C          -6.80750254273714  -15.63355330232867   -6.26532363156029
C          -7.41278670073736  -15.44961616295961   -7.48224476862149
C          -7.15360395493107  -16.24303357272591   -8.67255646630895
C          -6.50945787475012  -17.45183989594611   -8.74425594226559
C          -6.00804718295578  -18.17299839995529   -7.64211290250006
N          -5.57603659077006  -18.81022840141284   -6.78889612073030
C          -6.29128540871323  -18.16294016876822   -9.94233922624089
N          -6.08307351010354  -18.79692944273762  -10.87680787034765
C          -7.69258769719474  -15.49314159138724   -9.80166606171400
C          -8.37450925316480  -14.35577518776967   -9.31259784539622
C          -8.96454669402182  -13.45476201686593  -10.18199658115899
C          -8.87201465663185  -13.69426697751040  -11.54510148449957
C          -8.21328765861054  -14.81558218774446  -12.02820203835108
C          -7.61886967355431  -15.72531119658256  -11.16577960773971
C          -8.34078429453204  -14.39566918300095   -7.85941337656447
C          -9.23959815947139  -13.78439354837666   -7.02359282247913
C         -10.17813087999922  -12.82247470331148   -7.44479833324456
N         -10.94939554096421  -12.02051840329098   -7.72785371255217
C          -9.39598818449545  -14.13230874778368   -5.66616865225408
N          -9.59201959157533  -14.43765054200490   -4.57661769623174
H          -6.65698162986140    4.67319506130700    1.44161771624737
H          -6.31671009529337    5.67147458457902    3.65529774742243
H          -5.41898117616139    4.33946648093392    5.51443199729579
H          -4.82371243966279    1.97601389601092    5.19206508994127
H          -6.08174647220308   -0.42761160596925   -0.51275227457253
H          -7.87746784926958   -1.77702849987658    3.36742722383357
H          -6.25719168181791   -1.36210650220019    3.91256495827252
H          -7.59072938606236   -3.49295498911741    5.02495498012420
H          -5.84026571446760   -3.48835383060193    4.80936215548489
H          -7.88689077085765   -5.00334800868533    3.18757746759357
H          -6.21379039567501   -5.43227797457630    3.56791743274289
H          -5.81628479806188   -5.37723037537377   -1.79590629078786
H          -5.82098215296342   -8.34623321355412   -3.26292084620583
H          -6.51642708998748  -10.04080676183385    0.54744407895483
H          -6.54435313214168   -7.07655918320476    2.00431922440715
H          -6.29310839860684  -11.73411353048198   -1.20980925135629
H          -6.24091099720313  -10.57030113784407   -4.04056328523053
H          -6.73945253724867  -14.20154063033242   -1.06186475080786
H          -5.03926544942992  -13.73110606695557   -1.23870359555346
H          -5.77105904388818  -16.39164360881231   -0.99671785671418
H          -4.39161619385669  -15.88131699644101   -1.97022124299267
H          -7.14437238448327  -16.68953589247590   -2.95042126466268
H          -5.57597895308377  -17.01453762337174   -3.69081529074278
H          -6.33140270041933  -16.58743994176880   -6.07710479744655
H          -9.47429742644903  -12.57857409901775   -9.81480801558673
H          -9.31942967786355  -12.99723600595331  -12.23713306137793
H          -8.15769693148462  -14.98485147833754  -13.09275006803740
H          -7.10978378216051  -16.58893389341141  -11.56088269566346
