100
 SCF done       -178.092085278822          0.000702476873
C          -6.31421890318909    0.56773399277774   -4.83372455696720
C          -7.39748867811992    0.23871090520136   -5.63673612506421
C          -7.52820601718226   -1.03111848351165   -6.17751442342474
C          -6.57265203726615   -2.00844907702238   -5.93843019445160
C          -5.48989567029122   -1.69129934171357   -5.13749511835887
C          -5.35945116816630   -0.40163225867641   -4.57633739797249
C          -4.14409327919955   -0.36267814253877   -3.76747349939063
C          -3.65818276661801    0.74362246701230   -3.11139404972505
C          -4.26416115135978    2.01520927585857   -3.14722459390483
N          -4.70018915821878    3.07781848748296   -3.12857942852254
C          -2.48175196034598    0.78754485644737   -2.33864507515115
N          -1.53648429936389    0.89988867769360   -1.69359428906134
C          -3.59412661230578   -1.70185764058965   -3.77030127416340
C          -4.32265308696174   -2.47268837483755   -4.75369655192630
C          -3.85600605302105   -3.57886275220083   -5.42534526590843
C          -2.54591945370412   -4.07580653085776   -5.28206589060763
N          -1.46886909979451   -4.47205990447498   -5.23031465987759
C          -4.59711757541928   -4.29284774161785   -6.38338943876714
N          -5.16669187289467   -4.94284351061905   -7.14082435384674
C          -2.60321351151388   -2.13747672967527   -2.90505051939335
C          -2.34601454302396   -3.41975913742185   -2.43767165273786
C          -1.21661661105540   -3.81062607905762   -1.67226261322583
C          -1.26077848193554   -5.17109860961269   -1.26721392347805
C          -0.19981542268878   -5.71134054887093   -0.52373441715103
C           0.86541651672746   -4.91345470324097   -0.19730631276160
C           0.90634589639658   -3.56960046444051   -0.59626853776030
C          -0.11351596713720   -3.01680231033343   -1.32783580017551
C          -2.43762208673491   -5.83541356861754   -1.68889235020777
S          -3.45819708130309   -4.75653937491633   -2.57939256453586
C          -2.78657613080997   -7.17438492697239   -1.47450221120044
C          -3.95270359550220   -7.73971783624639   -1.91159823601103
C          -4.31947179154982   -9.08740176952730   -1.75445087272364
N          -5.54690216825909   -9.54112581264352   -2.20120211640877
C          -5.63921485566678  -10.86970557889385   -1.94719901962090
C          -6.46173030954538  -11.97740156911390   -2.06523997917820
C          -5.74209576794219  -13.05796677387675   -1.52107261557243
N          -4.51126602487334  -12.60849028766845   -1.08261200512737
C          -4.42375490697154  -11.27519839810170   -1.32082081923683
C          -3.60555217278263  -10.16529795879822   -1.19490488258537
C          -6.10471259638620  -14.41342554593599   -1.40417788146006
C          -7.33572712073572  -14.92373441003311   -1.70523851162846
C          -7.67975048284573  -16.27888158566037   -1.59725945902799
C          -8.96533254668596  -16.85016552317466   -1.75852601503293
C          -8.97470470626898  -18.25678931572594   -1.55438036192814
C         -10.17960712793138  -18.96719816413290   -1.66234784635620
C         -11.33343121922905  -18.29114807009681   -1.96341400228935
C         -11.32505273856337  -16.90311162847879   -2.16622959562048
C         -10.16254387706292  -16.18464716284867   -2.06616175963281
C          -7.69241362035737  -18.78003246379957   -1.25847755995221
S          -6.51122809123440  -17.50073556575654   -1.22211303510130
C          -7.34481838349862  -20.10312046050158   -1.00360911243802
C          -6.05920080016817  -20.53807147566684   -0.77646485794555
C          -5.76064732589766  -21.87071026432810   -0.50218402796926
C          -4.51477797822319  -22.39457209154439   -0.21322635494506
C          -4.16295194353365  -23.79486940947954   -0.35089183551895
C          -5.01654712943529  -24.86485983486600   -0.46169240636968
C          -6.42378004046943  -24.80014077857694   -0.42513914609520
N          -7.57234109246048  -24.83102712425528   -0.40282879328656
C          -4.59540536704478  -26.20368156535350   -0.59369292756411
N          -4.32791219477669  -27.31511350232093   -0.70454736764819
C          -2.70579004992613  -23.86670817694721   -0.36286287158979
C          -2.18619307707065  -22.57418628193314   -0.12770406097465
C          -0.81947059903382  -22.35528840448402   -0.11733525390059
C           0.02664490368643  -23.43177372711988   -0.34207330173369
C          -0.48126302962995  -24.70293154974138   -0.56211560556624
C          -1.84943101190494  -24.93459433067407   -0.57342066106844
C          -3.30317749691519  -21.66755654628917    0.10561268220334
C          -3.20887798277337  -20.44305624109719    0.72256029098375
C          -1.99238364820360  -19.78513449841860    0.98984590499570
N          -1.04615643519246  -19.16999553586040    1.20502642484300
C          -4.29215918907879  -19.72647774738826    1.27131442211926
N          -5.11163053358791  -19.11252681746258    1.79224385869598
H          -6.23049450829682    1.56089823560482   -4.42451859769734
H          -8.14890099580464    0.98641920001877   -5.84029753458626
H          -8.38249845322845   -1.26510750252225   -6.79450987027295
H          -6.68352105119363   -2.99327525496567   -6.36289974349560
H          -1.98776756281872   -1.37104351186088   -2.45424173694775
H          -0.22663882196200   -6.74465879966444   -0.21484408789688
H           1.68646277903306   -5.31921404462823    0.37400160025508
H           1.75739802850243   -2.96476005012269   -0.32311806420435
H          -0.06949938962551   -1.98290159072963   -1.63181919206492
H          -2.07404301963300   -7.78290243308606   -0.93833664197115
H          -4.66197034647416   -7.10608474916029   -2.43108014994904
H          -6.23546627684298   -8.96327459567992   -2.65193428382292
H          -7.44128926707358  -12.02928823404246   -2.49410226498304
H          -3.81913491332734  -13.18964525667398   -0.64134611850480
H          -2.62312067958862  -10.11271848071081   -0.77265556449676
H          -5.34541297066992  -15.08985534835889   -1.03112689619520
H          -8.11588995768088  -14.25159395636154   -2.03023614336355
H         -10.19401638745059  -20.03446327498932   -1.50746879559361
H         -12.26530073025739  -18.82938064162629   -2.04664059426635
H         -12.25021425514420  -16.39983814509084   -2.40267593833124
H         -10.16368022019232  -15.11697209301424   -2.22096268344059
H          -8.14831722678887  -20.82647468353751   -0.96127393951895
H          -5.26069382863040  -19.81377141290780   -0.85510450670663
H          -6.57894586942234  -22.56978912138839   -0.60629655286013
H          -0.41153521944818  -21.37148225637303    0.04895314410537
H           1.09441731415682  -23.27383301767043   -0.34514252945055
H           0.19474837089837  -25.52723897105662   -0.73113489660104
H          -2.22537214972187  -25.92897667567037   -0.74888875313115
