114
 SCF done       -207.240854414589          0.000773704022
C          -4.80904885610244  -12.27309487376697    9.27281574897000
C          -3.55005157164269  -12.77858944388732    8.98410602626232
C          -2.80037593429660  -12.27797840219953    7.92891175260326
C          -3.28592252463554  -11.25029570516540    7.13446192469950
C          -4.54241959973788  -10.73910351971812    7.41244654406012
C          -5.31204282026867  -11.25216125633898    8.48167774783743
C          -6.58537389878751  -10.54403164097337    8.53161783782645
C          -7.53521276025399  -10.66161164976700    9.50860717784703
C          -7.41425252428517  -11.50974182746184   10.63062733209164
N          -7.38009309001299  -12.17865621584064   11.56254173787303
C          -8.74078219502808   -9.92934081260185    9.56324051124599
N          -9.73412574030160   -9.36460659212296    9.67312262101974
C          -6.63769772148542   -9.69788403962874    7.34210526332413
C          -5.28520369935854   -9.65149827142507    6.79775509838323
C          -4.74428739264327   -8.61375254402441    6.08762663241640
C          -5.43591910195317   -7.41136969823441    5.82542409450256
N          -5.95280613704341   -6.40244512176714    5.64719044511322
C          -3.41587661698138   -8.59086810316046    5.61772509653583
N          -2.35412003702361   -8.53598485573149    5.18536246683932
C          -7.78362761199055   -9.19113545796009    6.80095395997292
C          -8.01015456422279   -8.73757587943364    5.47910693772079
S          -7.03234144407416   -9.16591864487634    4.09268535666516
C          -8.05083175528370   -8.29656028861281    2.97902579165360
C          -9.12950678044538   -7.73962017571374    3.68553760276256
C          -9.09456456714182   -8.00022891397772    5.06389573092121
N         -10.23868553742679   -7.01531613226507    3.16732836258602
O         -10.45739123662382   -7.03878277108163    1.97057594737350
O         -10.93396125481395   -6.42834897258804    3.97161908339664
C          -7.55714599042642   -8.25799798801924    1.65276162965258
C          -8.00061695718033   -7.52098730721089    0.60199750218491
C          -7.38349339886080   -7.45144402805092   -0.68987613295428
C          -6.34334592664946   -8.27184000888408   -1.08454678044329
C          -5.76693141582315   -8.12903665412591   -2.35818475868902
C          -4.72280307793773   -8.80871396615265   -2.97807326184593
C          -3.90642305429164   -9.94299593708844   -2.46054323649596
C          -3.10192178659154   -9.53271741298237   -1.20888993054943
N          -1.91994470578465  -10.36355145631381   -1.11093631898505
C          -4.78353769918391  -11.18173456877143   -2.19996788628864
N          -3.95781970307226  -12.33692152406268   -1.88305780508050
C          -4.53134883113771   -8.18299430724284   -4.26632900072003
C          -3.63744440151131   -8.42513284992696   -5.24229162504450
C          -3.60581436640142   -7.60609402895144   -6.48988502630649
C          -4.65514726146509   -6.54553727774982   -6.56774841445199
C          -5.54181369375495   -6.31803528899120   -5.58256586235918
C          -5.52150304303302   -7.10676068177269   -4.40618465242809
C          -6.26889461530574   -7.08710385440731   -3.24889725723055
C          -7.35211921458139   -6.27640078753759   -2.83243645866478
C          -7.88942322393341   -6.46256598339809   -1.60334611970891
C          -3.60343679692192   -8.53628444175505   -7.67524940339432
C          -4.61673278410957   -8.66566478735819   -8.53339157341056
C          -4.60072429249509   -9.53360138515073   -9.67434766201249
S          -3.25593291558888  -10.56496987194508  -10.05648776886458
C          -4.01723193689527  -11.18490913804622  -11.49476501234243
C          -5.27420820529692  -10.58917272787037  -11.64124811689070
C          -5.58015927452344   -9.66581210936094  -10.62210756579973
N          -6.24036189044703  -10.79603970779121  -12.66571031884818
O          -6.19938516145329  -11.81694380103124  -13.32767890609123
O          -7.08590334676973   -9.93728390625138  -12.79838607561727
C          -3.20314711580265  -12.04943302340324  -12.27171381934681
C          -3.48313903619026  -12.61849056212712  -13.47201921109640
C          -2.51735727852628  -13.36593336165898  -14.18686951501562
C          -2.61357046572114  -13.70119035124783  -15.50631805743746
C          -1.83287685398052  -14.73906590911750  -16.17302997717629
C          -0.65102403781148  -15.28047141752566  -15.74686689074236
C           0.05251084395524  -14.88128957168524  -14.59019532164219
N           0.67900134355498  -14.59721752048309  -13.67099794812230
C           0.05227744906851  -16.29082001668237  -16.43819731470876
N           0.67120348967414  -17.11233327653312  -16.94684654819673
C          -2.55485092950819  -15.08721594841642  -17.38820041249047
C          -3.64185191857677  -14.19634036689364  -17.54801648129352
C          -4.50763879855510  -14.32714987957953  -18.62130603076472
C          -4.28026030444613  -15.34514472258492  -19.53542626424904
C          -3.20730383683291  -16.21286246046969  -19.38655894269383
C          -2.33536822225992  -16.09484969616977  -18.31477919564079
C          -3.60386785170164  -13.22283798011213  -16.46680039567648
C          -4.20767545728237  -11.99539180266644  -16.47346562957074
C          -5.11267699907040  -11.57594007436091  -17.47412477263856
N          -5.85266714029316  -11.18623300997142  -18.25898405257443
C          -3.91489584526237  -10.94431323288515  -15.57622636438442
N          -3.67300508201967  -10.03163981575148  -14.92339708163863
H          -5.37698932843449  -12.67684648294014   10.09463889410285
H          -3.15059244494084  -13.57639657691617    9.59125285942894
H          -1.82570987424461  -12.69256004794911    7.72172280314775
H          -2.69917137117292  -10.87046231845484    6.31364805830654
H          -8.67480147851960   -9.19321613322646    7.41536594903263
H          -9.84953957037549   -7.62916071582612    5.73493843761751
H          -6.66815959569287   -8.86433480443489    1.52571526536036
H          -8.87845192032706   -6.90513655440160    0.72654931987152
H          -5.96539527444360   -9.03040617165357   -0.41853692306008
H          -3.16506761064588  -10.21807118082850   -3.21714426865730
H          -3.75430708920762   -9.58767128235739   -0.32315345851248
H          -2.77717315442823   -8.49263317509362   -1.31964749262345
H          -2.20856597053531  -11.33257668751236   -1.00787077333961
H          -1.36504879036427  -10.10160695173442   -0.30394074910949
H          -5.42764003843996  -11.33904462738587   -3.08277127250276
H          -5.43831111676067  -11.00135104076088   -1.34458245927390
H          -3.39590247012690  -12.59547522294541   -2.68826597855267
H          -4.54150240953465  -13.13187457158155   -1.64573617443680
H          -2.90127767482406   -9.21368811702990   -5.16539582781746
H          -2.62380758605650   -7.10112392298947   -6.50053962203447
H          -4.64738334048077   -5.94375162840797   -7.46373813887490
H          -6.27387145938627   -5.52896168149949   -5.67053323451364
H          -7.73662856788402   -5.51972702958582   -3.49970189721267
H          -8.71774554029829   -5.85484326015759   -1.27155815603123
H          -2.71093578633242   -9.13617679258336   -7.80074557704503
H          -5.51952948684015   -8.08340481864567   -8.41026795513145
H          -6.50786011185379   -9.12188537391465  -10.60662141516534
H          -2.20862870798952  -12.19500217560264  -11.86417685397732
H          -4.47075100466052  -12.52692088347622  -13.89549972030113
H          -1.67265098598347  -13.73519529897176  -13.62121566351452
H          -5.34914901340745  -13.66507608158653  -18.74383460705340
H          -4.95000753682667  -15.46252882616030  -20.37341979600341
H          -3.04884058868672  -16.99589486410154  -20.11208627540632
H          -1.51143310529075  -16.78150110153831  -18.21037810210057
