106
 SCF done       -226.828501517681          0.000877400000
C          -0.66875083293891    1.38744921104443    3.07698435686378
C          -1.79331309255742    0.84628378063520    3.68023136519124
C          -2.46829924525813   -0.22501915024604    3.10914329034665
C          -2.03045648433099   -0.79328809788214    1.92333190405035
C          -0.90329048766486   -0.26574772043144    1.31223430587819
C          -0.22273834485140    0.83529303157783    1.88502764772932
C           0.88095792818121    1.21659818960266    1.02056803988340
C           1.82912858090006    2.16198560034058    1.27534809417196
C           1.90284067743502    2.89735933872166    2.48144056403809
N           2.02251691516446    3.52108540309448    3.43620952878746
C           2.87134207508097    2.54777692723814    0.39972272814231
N           3.72497791169090    2.94458334443751   -0.25572470390683
C           0.75672088148633    0.39767126984387   -0.19428327520731
C          -0.20791873302412   -0.66643734557973    0.10422149277496
C          -0.31765006628449   -1.86938637465589   -0.53128274003519
C           0.55291787750221   -2.33166783871411   -1.53911793069905
N           1.25143680197867   -2.78134814934425   -2.33120763687245
C          -1.29457298760906   -2.84007518303084   -0.21336965876609
N          -2.08566097405198   -3.64891362899846   -0.02670862899286
C           1.30678034272780    0.71238258845080   -1.38179186627514
C           1.01556884336899    0.13894550167508   -2.68321293838184
C          -0.26743854180324    0.02749663612944   -3.22226943571032
C          -1.58703753660826    0.35050434737042   -2.63132782469162
O          -1.85221578935966    0.78131044582465   -1.53610416061537
N          -2.53551879483601    0.04034978582462   -3.60871815134274
C          -1.94643105216062   -0.44008631934313   -4.78470928226450
O          -2.52030790282327   -0.77057055943311   -5.78511282157954
C          -0.48366902246917   -0.44623509168967   -4.51928895150937
C           0.54518002807055   -0.84393749382348   -5.35092164474788
C           1.82713476648425   -0.75238171148409   -4.81733363803651
C           2.05519113483963   -0.27420855656737   -3.53377862399772
C           3.46167783417898   -0.34243759370389   -3.09050560700644
O           3.88781512571629   -0.07169495511729   -2.00812921710831
S           4.46360294431196   -0.95199874490757   -4.44341832111286
C           3.05332125178593   -1.16673994436652   -5.53858382849386
O           3.13568686585460   -1.57334766032726   -6.65475750277394
C          -3.89546208971209    0.18649543046319   -3.34576643027378
C          -4.87507662604908   -0.03829950231972   -4.23349285924618
C          -6.26917168087396    0.07785627666337   -3.94799944051918
S          -7.39237319381253   -0.21917992452404   -5.25886689792954
C          -8.71186844590476    0.04168013202655   -4.21376398130978
C          -8.30814025597939    0.34593321234807   -2.91093953146866
C          -6.92384526585417    0.36995790730611   -2.76271486511825
C          -9.51571855519335    0.53044810090436   -2.04993013273066
O          -9.55876384107375    0.81229264340605   -0.88102043992456
C         -10.64370501451333    0.28719154834965   -2.98992930476982
C         -10.13438619467262    0.00915217863758   -4.26419065052542
S         -11.35101461863670   -0.30525498145801   -5.40374274815671
C         -12.57994893731627   -0.05062666283629   -4.18320949464560
C         -12.03407200744200    0.26631430682403   -2.95134031213561
C         -13.98131942355375   -0.13148675201206   -4.50781654010591
C         -14.89267496739512    0.81762880030581   -4.01348674757663
C         -14.64230119952445    2.05419646967044   -3.23135878488057
O         -13.60206844739865    2.58322409011205   -2.94669875510524
N         -15.91348412383827    2.57927816344832   -2.94227214340523
C         -16.94037726168726    1.86206515762634   -3.57857821398403
O         -18.10542333555773    2.13441696773306   -3.52101282701264
C         -16.25982485839722    0.75233476569372   -4.28531884538876
C         -16.81179125046553   -0.22320243164949   -5.09410568025463
C         -15.92252289018185   -1.16288758073910   -5.59868354637093
C         -14.55815743692569   -1.14456636526912   -5.30986506907844
C         -13.83886184682022   -2.32458574125167   -5.82995931502993
O         -12.70484750380382   -2.65102227674996   -5.64062080201670
S         -14.96547474053792   -3.33632931356132   -6.80102792249355
C         -16.36992509884162   -2.28096489262196   -6.45933120771302
O         -17.47056723459537   -2.47849884687995   -6.87227479388383
C         -16.20499841244189    3.56225668548389   -2.01977197537270
C         -15.30186765367383    4.17284179284792   -1.23287700604433
C         -15.71009841157099    5.03439417613714   -0.17777847645716
C         -14.95715463555524    5.36587028982615    0.90436343822796
C         -15.28135443688155    6.44419554435270    1.83915921642028
C         -16.50765562254806    7.00983548566384    2.04781899522291
C         -17.70659106086671    6.61057680062910    1.41714397960637
N         -18.71850061814184    6.32941612920096    0.95413157754839
C         -16.75258051618641    8.04912714915122    2.97241485072458
N         -17.01911482737913    8.89271797858951    3.70277444541424
C         -14.04634544517078    6.78443109775563    2.52722950090262
C         -13.04952470430751    5.84724028316282    2.16980243985404
C         -11.76269416950359    5.96911313963230    2.66976786791307
C         -11.48236568622156    7.01682253298700    3.53377475543033
C         -12.46479907609650    7.92723339182559    3.89751094665590
C         -13.75356682619262    7.82310768352352    3.39783932193321
C         -13.63952468449537    4.85345769979344    1.28208966941715
C         -13.12985110862786    3.60507475088067    1.05094871589698
C         -11.88432931838857    3.17610263512719    1.56973780089565
N         -10.89085252221849    2.78165980134125    1.98406876232950
C         -13.78241506227344    2.53238874629122    0.40558850333651
N         -14.24822309688854    1.59310058994404   -0.06347297303514
H          -0.16364621148767    2.22535801143069    3.52861866847615
H          -2.15215996076577    1.27072498470962    4.60526625958799
H          -3.34823764739386   -0.62055599423237    3.59261874767336
H          -2.56857128508327   -1.61787888364326    1.48520485901156
H           2.02938084725633    1.51815116956582   -1.41446632860699
H           0.37052070717838   -1.21825207740315   -6.34687290188210
H          -4.08035024866906    0.50500576053000   -2.32942760923325
H          -4.62657719561722   -0.34084167326746   -5.23979596207288
H          -6.41903341595991    0.57777333879280   -1.83788679731328
H         -12.61928204720172    0.43219894523243   -2.06509325735754
H         -17.86538009531808   -0.26448643064326   -5.31824997508811
H         -17.27031934539199    3.72550263262999   -1.90705049825394
H         -14.24916977324849    3.98725796201011   -1.37661110334726
H         -16.69610206197096    5.46810872972245   -0.27025058709189
H         -10.98540173143519    5.27792764680541    2.38901611295429
H         -10.48292349788714    7.12432274783695    3.92644540477023
H         -12.22364637217802    8.73288949542782    4.57375843537313
H         -14.50293331970742    8.54419508918183    3.67988553063352
