113
 SCF done       -225.760987483743          0.000950873993
C          -5.72884037747020   -7.23243324871310    0.64433928229730
C          -5.44340438525247   -7.69486478250966    1.91960154047606
C          -4.71200369391731   -6.92503775521123    2.81514564577953
C          -4.25207413305088   -5.66540712864312    2.46437625285425
C          -4.53455640808939   -5.18885322770134    1.19384600053428
C          -5.26990238499675   -5.97659293476798    0.27575350726608
C          -5.38699419967398   -5.25723965920417   -0.98088483497455
C          -6.15059575261421   -5.60124946152936   -2.05556719939308
C          -6.97440824260444   -6.75023112761755   -2.09800546937228
N          -7.66242722807412   -7.66226812475415   -2.19574973200566
C          -6.26550230966616   -4.86300042425534   -3.25617183113099
N          -6.42056130884211   -4.33708970749411   -4.26383031787870
C          -4.51697568620145   -4.07834903827050   -0.86157113976185
C          -4.20902388035274   -3.92301577370567    0.56491036114278
C          -3.84913835287033   -2.76880387368258    1.19654516866429
C          -3.78425794905707   -1.50671130840450    0.57105735013780
N          -3.75487508896139   -0.45212151813074    0.11925847671686
C          -3.57357079991811   -2.68534507374837    2.58049087656315
N          -3.32310076611306   -2.56323554494200    3.69237451540165
C          -3.96846273579550   -3.43628299881803   -1.90864561385764
C          -2.90994610632693   -2.44089394389505   -1.90482271526490
C          -3.09117685071662   -1.25281028493669   -2.61359460340005
C          -4.32015854074991   -0.78621264786624   -3.30282342912359
O          -5.37668949803685   -1.35792554086107   -3.37722131230470
N          -3.99779000712453    0.46200083718827   -3.82827561161576
C          -2.69021495481157    0.85527333572489   -3.50908222850265
O          -2.17275778230900    1.87990242623274   -3.85542659089589
C          -2.12440287285776   -0.25708165231717   -2.69786603526997
C          -0.89435653603212   -0.38734256061265   -2.07956787255928
C          -0.68742748786117   -1.57350971673709   -1.38384632937944
C          -1.65102960706005   -2.58057915370348   -1.29382126874132
C          -1.20194607761969   -3.77288519719132   -0.54757522899156
O          -1.80255328967038   -4.79109271342490   -0.35146478442090
S           0.45518668388993   -3.49907322642240    0.07008582932001
C           0.57800687450500   -1.86508449850679   -0.67825227058275
O           1.54316040317358   -1.17414250636140   -0.59300533600140
C          -4.82467538103563    1.28978078316075   -4.58431651347142
C          -6.07780155096265    0.98637734908607   -4.94681465315158
C          -6.91825784167682    1.85202070316204   -5.71008341801324
S          -6.36006830334866    3.43090791346976   -6.20336863118243
C          -7.88895018533577    3.78597353460380   -6.95029591420650
C          -8.77176917023340    2.74645651059362   -6.80014588994736
C          -8.21908684635121    1.64064043458108   -6.11306976829441
C          -9.07749128027272    0.41100833511670   -6.00751208698208
C          -8.34196380455404   -0.85340947689782   -5.68209564928999
C          -8.60130891242949   -1.63079312740895   -4.64715019874347
C          -9.74169527768338    0.24795599957290   -7.39078887947760
C         -10.66070637870317    1.41488086804871   -7.75763859243981
C         -10.22393801144463    2.74792073966175   -7.12932379476237
C          -8.07461899287112    5.03166439963586   -7.66039788544047
C          -8.44505418471963    5.06536395532138   -9.01193602256454
C          -8.68488921713696    3.94264138229532   -9.95155281112438
O          -8.59623385053068    2.75886975550784   -9.76696819392025
N          -8.99869007781697    4.54460587872397  -11.18245575568404
C          -8.93108142628845    5.94940570904859  -11.12052409157173
O          -9.13025299661122    6.68442971558777  -12.04486593758303
C          -8.56348733457443    6.26253583168066   -9.72085747094277
C          -8.32132226478429    7.49552184484685   -9.14323548648635
C          -7.96962415653780    7.47701981832044   -7.79916649132495
C          -7.85819622105168    6.29377079206807   -7.07186702838213
C          -7.58549940123234    6.49752553371023   -5.63549836832751
O          -7.56117689580528    5.68671369862996   -4.76135183895527
S          -7.34910758479558    8.25917497973770   -5.32939453569944
C          -7.69542145470362    8.71041216256228   -7.02707882253610
O          -7.70044533431771    9.83184430124977   -7.43257620621490
C          -9.40943677964701    3.91097563664463  -12.33691966880122
C          -9.69321818803532    2.60057360486781  -12.44096929643747
C         -10.17573892754792    2.02296862789899  -13.64840540453556
C         -10.81358920182698    0.82263216574492  -13.73081903707709
C         -11.00132436195230    0.03745059738894  -14.94993749671379
C         -10.93375863219788    0.48891065702240  -16.23777039278796
C         -10.71395728780873    1.83223573139065  -16.61396884948828
N         -10.54650625442389    2.90481837504497  -16.98621830452708
C         -11.11627303874896   -0.32874142993116  -17.37475717129964
N         -11.25297606384645   -0.93733957850817  -18.33769743823884
C         -11.27524133454358   -1.32885009155131  -14.52652138259437
C         -11.40394978458463   -1.35815471259946  -13.11819751140438
C         -11.64967587431192   -2.55001017395433  -12.45584744609184
C         -11.77145740939646   -3.71040221857266  -13.20483857205521
C         -11.65768831916191   -3.68229602320791  -14.58795541998811
C         -11.40907666701869   -2.49634204892657  -15.26232411049831
C         -11.27821342492708    0.00053022999440  -12.61728749503252
C         -11.73212854382346    0.45550059903657  -11.40885726506352
C         -12.18363435383678   -0.38844455179643  -10.37097623962589
N         -12.53579156887008   -1.02454253698947   -9.48341787621993
C         -11.92266200895934    1.81795170433293  -11.08954223558466
N         -12.15975984973444    2.90170199400149  -10.79371135239695
H          -6.28717989237845   -7.84753154313177   -0.04233786829050
H          -5.79041392919797   -8.67268586754138    2.21650456073855
H          -4.49424072490906   -7.31305854634858    3.79824683345636
H          -3.67497554083675   -5.08243124742947    3.16347340880133
H          -4.33690021159845   -3.66864787177168   -2.90032569760641
H          -0.13595880015688    0.37785954499487   -2.12251166316854
H          -4.34138827193895    2.21903265145147   -4.85776626098507
H          -6.52254080627872    0.05055265294498   -4.64504919676366
H          -9.85442180686224    0.58511533724702   -5.25334449780644
H          -7.58776336274067   -1.13968369447929   -6.40385417712795
H          -9.35329707733066   -1.37438173063334   -3.91803861725418
H          -8.05635133049197   -2.54350243614267   -4.47733361700413
H         -10.30938945540112   -0.68299945079618   -7.41345029744030
H          -8.94208676726764    0.17343308866334   -8.13116222474697
H         -10.65880031390040    1.52611779317748   -8.84111376614151
H         -11.68505908696459    1.19826962379089   -7.45277036831037
H         -10.76095829674338    2.89021121619980   -6.18561391442337
H         -10.48767076080212    3.58080239966487   -7.78217633218152
H          -8.39953970608285    8.41876259369776   -9.69437486433402
H          -9.56607437656179    4.60028193819089  -13.15800435945303
H          -9.54839689826030    1.95580312885447  -11.58701332936759
H          -9.96219725807378    2.56261462495601  -14.56034180730946
H         -11.73374434722901   -2.58458468302389  -11.38178768508105
H         -11.95722076286919   -4.64729807855412  -12.70259834521979
H         -11.76076558014015   -4.59734395534677  -15.15062662486345
H         -11.31926108846556   -2.49475462086395  -16.33607143576386
