96
 SCF done       -185.968056726318          0.000666043993
C          -1.78470557290635   -1.68562280433254    7.75291115825508
C          -2.42727327922134   -1.66174355833933    8.98226960489370
C          -3.62599480574440   -2.33149730370560    9.17444487596718
C          -4.20992926258286   -3.05729020419634    8.14612650278407
C          -3.57336226899096   -3.09533904666528    6.91738507188383
C          -2.36210027449154   -2.39861477329179    6.71452037613995
C          -1.95105586867588   -2.57222238715898    5.32764673968294
C          -0.82721459291020   -2.02902396325210    4.75900180290699
C           0.13859853973437   -1.28395287733899    5.46915469558128
N           0.97002163119925   -0.67320608057892    5.97280045984569
C          -0.44864702768967   -2.11349122596129    3.40303996546998
N          -0.06645399548612   -2.11440230406030    2.31914900526492
C          -2.98999817571284   -3.35117532518179    4.66806239835673
C          -3.92392095630637   -3.78401800581697    5.68243160094802
C          -4.83028278327202   -4.81610603491610    5.59844234394418
C          -5.02025832290459   -5.65698195305707    4.48877369938959
N          -5.23682566606705   -6.38319503462755    3.62428961347519
C          -5.65779732362870   -5.23294176588129    6.66219048372716
N          -6.37041268322284   -5.63044917747909    7.46958683311861
C          -2.99097319530799   -3.59888451703743    3.31000796282567
C          -4.04407585855269   -3.90104364974982    2.44509937715361
S          -3.63360443575499   -4.57753403247589    0.88653287630409
C          -5.29185575369971   -4.63036922961782    0.39258619374635
C          -6.12185040013480   -4.09904684879191    1.37902732719414
C          -5.42470866026034   -3.66854865393803    2.52163420672282
S          -6.11289448308197   -2.80083315192058    3.88093197844936
C          -7.69136147038578   -2.19577450971403    3.18432399312018
C          -8.63922900600260   -3.36894257432068    3.22873387548046
O          -9.54220708013278   -3.46033078688225    4.01260376179783
C          -8.29316999618687   -4.47329442429548    2.24174507016922
O          -7.47030939990371   -4.04941317654244    1.17347090290176
C          -5.66789225024159   -5.17193700786540   -0.86008942043565
N          -4.74800823714862   -5.80635972026979   -1.66892065298177
C          -5.38496761440613   -6.23342394216766   -2.78867847984681
C          -5.21293922617186   -6.90922398054157   -3.98914099808568
C          -6.46977239687169   -6.91451470498098   -4.61425505340667
N          -7.38025110552234   -6.25389614347910   -3.81366847881892
C          -6.74719958683469   -5.83665983260926   -2.68882700092615
C          -6.92485047945884   -5.17416410187246   -1.48013964922965
C          -6.87211415060636   -7.46813526967725   -5.85224108032622
C          -6.08059410753876   -8.23030363426248   -6.65138730969026
C          -6.45100229300151   -8.80554663803374   -7.88720999578230
S          -5.40936201915838  -10.04023979520186   -8.53688409222843
C          -6.43923268385967  -10.27935223745533   -9.91631949295643
C          -7.52423317741701   -9.40189226510903   -9.87414856568711
C          -7.53708919084283   -8.57848346447665   -8.73175240924484
S          -8.71457417362496   -7.31138166411203   -8.40374286076170
C          -9.48270618513351   -7.06280107776473  -10.04627816809860
C         -10.45326930972632   -8.20235440978037  -10.21392304050085
O         -11.63771225005674   -8.09096814644519  -10.05073735451757
C          -9.79593754715015   -9.53738725711874  -10.52184760620410
O          -8.43094058136471   -9.45146722824759  -10.88149295804012
C          -6.17934246970485  -11.20011241699883  -10.95363743891435
C          -5.47343058525091  -12.36802667255525  -10.84317132270078
C          -4.81230434006503  -13.06775662217157  -11.93535319158816
C          -5.00286676905671  -12.87865518169447  -13.27826282621496
C          -5.93086711523970  -11.98302180393340  -13.84950885878398
N          -6.66629233636306  -11.28134925623931  -14.38385215807837
C          -4.31688337270655  -13.59312418686423  -14.28315092163954
N          -3.79654847034779  -14.13589648406172  -15.15040084143771
C          -3.88241188247041  -14.01091350680254  -11.32440959548084
C          -4.07100234860488  -13.99971526286859   -9.92327252808720
C          -3.29877749277045  -14.79864702436680   -9.09744655518147
C          -2.33425529588599  -15.60976379894930   -9.67668915810556
C          -2.15233695650637  -15.62962616205641  -11.05208310579166
C          -2.92187924196009  -14.83470826827011  -11.88921125721906
C          -5.16406346355248  -13.09182532857900   -9.61887510710396
C          -5.95356148688975  -13.13444729474271   -8.49752222070833
C          -5.65976252231946  -13.90637853827882   -7.35623310103589
N          -5.45698658811221  -14.49737264686957   -6.39342669204441
C          -7.20010497641470  -12.48426681238703   -8.40956711313657
N          -8.24246758216098  -12.00572912667134   -8.33983709761231
H          -0.85658365281642   -1.15470759930217    7.62173210072435
H          -1.98661242260249   -1.10816851256043    9.79724166243027
H          -4.11473029027122   -2.28990945860576   10.13580583444851
H          -5.14568002590119   -3.56610130525233    8.30832786088957
H          -2.03648835398831   -3.50608293644099    2.80727347776478
H          -7.52082765422526   -1.82314690234721    2.17597214060544
H          -8.02425963016564   -1.39908105465440    3.84763978145867
H          -9.21800801225249   -4.84636448371805    1.79213196460926
H          -7.83063156679766   -5.30270296061523    2.79639338057544
H          -3.78157296182786   -5.94612783033434   -1.42713811641077
H          -4.31483997306873   -7.34057691583238   -4.38044513062748
H          -8.35301333148082   -6.13484274382612   -4.03954232779047
H          -7.81289727019863   -4.73436816040597   -1.07809062164928
H          -7.89724835546576   -7.28527337775605   -6.14066322309015
H          -5.08262286699741   -8.47725412706139   -6.31726295978338
H          -8.70513189229679   -7.04076999854155  -10.80718860357321
H         -10.00358427737013   -6.10873976989765   -9.98600618604365
H         -10.30283357009505   -9.98505392902896  -11.38186847886686
H          -9.93246984210198  -10.20974890703695   -9.66283194541799
H          -6.54938787716878  -10.89897641265693  -11.92485089241387
H          -3.43046669394613  -14.78502587944625   -8.02748437967810
H          -1.71798341680885  -16.23275500852001   -9.04672287559089
H          -1.39845836510081  -16.27154566976374  -11.48152524586169
H          -2.76383140588952  -14.86301775957027  -12.95472621621292
