107
 SCF done       -220.994011905434          0.000337335760
C           6.08302103130073    0.72480683390633   -7.52820309194732
C           7.19706206369926    0.90061813715847   -6.72225311277093
C           7.09175066833748    0.87693968952526   -5.33756095477130
C           5.86657540625948    0.68557003346810   -4.71847401738552
C           4.74376089654404    0.51333499458897   -5.51280039980715
C           4.85040812876890    0.52575181510858   -6.92405551270310
C           3.54153138304536    0.27553775628071   -7.50374456261382
C           3.21169608031810    0.32144422272479   -8.82568781484017
C           4.12053510522288    0.67095713215148   -9.85123236858679
N           4.80346618157497    0.95267801530016  -10.72848142121573
C           1.93544785842551    0.04977107375865   -9.37193978693122
N           0.94522883778704   -0.17393214186183   -9.90626035788877
C           2.65239532588627   -0.06284056691945   -6.38368235489793
C           3.35250364744848    0.31809886429351   -5.15288893525915
C           2.77852107705819    0.59900916881536   -3.94684459107692
C           1.38900538699843    0.64171453857907   -3.71229136714502
N           0.27055234709654    0.73668135713798   -3.47183015723658
C           3.51082034864122    0.96744409221640   -2.79552703949605
N           4.05108347427496    1.25506853127620   -1.82588934191887
C           1.51003031974495   -0.76428272032601   -6.50848908436697
C           0.71243602519591   -1.39462967139913   -5.47276127424881
C          -0.66838343041799   -1.19803092567072   -5.45999038888319
C          -1.47173468899037   -0.27306507448015   -6.29640442261449
O          -1.09613083997625    0.50203718172898   -7.13713778664339
N          -2.78968785832725   -0.46105540915823   -5.89499861584078
C          -2.91110452117391   -1.36419338174166   -4.84333841532333
O          -3.93400819769245   -1.68827957412999   -4.30085390431085
C          -1.52128264429243   -1.81924002755369   -4.55343857086467
C          -1.04327744653185   -2.67735528958419   -3.58019198679714
C           0.33084666117887   -2.88952452946368   -3.57879184038097
C           1.19499744430232   -2.28544347637552   -4.49493717313524
C           2.60224576569194   -2.70233911323456   -4.35244643103826
O           3.54224280861370   -2.38270513473805   -5.02406334252428
S           2.75432970898085   -3.82080778300281   -2.96162539626295
C           0.98973480107790   -3.78416711998831   -2.60513680664098
O           0.48526544935204   -4.40001946000564   -1.72010275683674
C          -3.84395951974513    0.25630606338449   -6.48505800343161
C          -5.05976823957572   -0.28612177712847   -6.62785774339129
N          -6.18961695381577    0.28452586731198   -7.13319088830083
C          -6.37987271091484    1.54095448822702   -7.67269195002247
C          -5.45418970952462    2.30180926442384   -8.33030589345545
S          -6.10486591135277    3.77313050319159   -8.93072693753990
C          -7.65316870467953    3.38405998989027   -8.31786539122245
C          -7.66957042152793    2.18483619648901   -7.66285947454652
N          -8.83584513866929    1.65952816988583   -7.11623382898556
C          -8.94726006404909    0.84049847105674   -6.05570337232744
C         -10.14345447427179    0.35210723133879   -5.63497350800737
C         -10.34871209534697   -0.53956567864398   -4.55037691333952
C         -11.60628848743056   -0.57665702684656   -3.90466817368495
C         -12.84363015390898    0.13636187879200   -4.25584890956013
O         -13.07870214165422    0.90265595733366   -5.15414024018161
N         -13.80701765692948   -0.26553056191246   -3.30350461004872
C         -13.27462067601543   -1.16345311535762   -2.36926259098061
O         -13.87050477735175   -1.68231904665071   -1.46516801125979
C         -11.85821582859836   -1.34477725590667   -2.77061493116174
C         -10.88695789178783   -2.13838426120867   -2.18637954166263
C          -9.67483781694214   -2.19823461535560   -2.86253570260231
C          -9.40804504023037   -1.47266533366400   -4.02525023766780
C          -8.18653328596561   -1.92351159875743   -4.70126333710005
O          -7.81090010758677   -1.66872023377528   -5.81651927547609
S          -7.29745632386497   -3.08567118034790   -3.66779009135270
C          -8.58838994992520   -3.10242579822909   -2.42600451360908
O          -8.54730318616329   -3.76055482564286   -1.43262932283116
C         -15.09037831868771    0.23262049042553   -3.34717978671398
C         -16.06845213890307   -0.07003346152432   -2.47397783992589
C         -17.37255154500908    0.48111780203696   -2.59100860686676
C         -18.33960509997908    0.41001499365901   -1.63468588201735
C         -19.76881203177562    0.61174806954594   -1.86236628349360
C         -20.34989578104245    1.28185274082002   -2.90265353278195
C         -19.64572925042993    1.95258203566647   -3.92604408952771
N         -19.13647399879835    2.52194625826514   -4.78282293038884
C         -21.74398291151738    1.42875137070411   -3.07063018106103
N         -22.86402201432720    1.58283357623804   -3.26653496569578
C         -20.46075755638342   -0.04377254483716   -0.76168988306717
C         -19.50679000033585   -0.48142846638394    0.18655290721330
C         -19.90573951923634   -1.16010215910620    1.32638819630332
C         -21.25875299953100   -1.39745982032820    1.51611740139407
C         -22.19729023156114   -0.96007626883813    0.59173673916362
C         -21.81094834326023   -0.28007064366190   -0.55322661250991
C         -18.18730965437144   -0.06430010805588   -0.26185346542079
C         -17.07623131569352    0.07531564406976    0.52362280589965
C         -17.00641811478609   -0.36498768534386    1.86343261071996
N         -16.89594103997908   -0.71577173614475    2.95002484415834
C         -15.91856039971615    0.79134217963460    0.14488052137841
N         -14.98842114822923    1.42202506580429   -0.08699053795053
H           6.18520859467259    0.73443315865293   -8.60095066418001
H           8.16218952820231    1.05077818555732   -7.18132355849961
H           7.97622248323662    1.00520438752245   -4.73271890946224
H           5.79919708692764    0.65602797617216   -3.64322098813643
H           1.11028523477113   -0.91360924821472   -7.50387731715413
H          -1.68643824534071   -3.15636820744058   -2.85952943869631
H          -3.56027284253486    1.24410746636300   -6.80520617495072
H          -5.23226379128852   -1.29250798925912   -6.27464502989598
H          -7.01019581229831   -0.30355140704349   -7.07005345279156
H          -4.43368396857060    2.06471690926060   -8.54368129064380
H          -8.47338113222472    4.05894973472898   -8.45855996511887
H          -9.70016466918526    1.97951403969278   -7.53668948570379
H          -8.03455176296352    0.63469102978091   -5.51964439468902
H         -11.04192449558207    0.71624020804461   -6.11368427430706
H         -11.06403228561511   -2.71110466454247   -1.29107132009715
H         -15.23643041790687    0.94364213145483   -4.15190367380369
H         -15.87020485405406   -0.77067729446661   -1.67784483762037
H         -17.62247034140859    0.91953500946883   -3.54723991945483
H         -19.18565402723664   -1.51047951420050    2.04791104337674
H         -21.58395371486586   -1.93148281860556    2.39573945695400
H         -23.24514711997709   -1.15439281269845    0.76186875762628
H         -22.55241736970608    0.04741257657756   -1.26334721192742
