130
 SCF done       -247.330332425671          0.000737606210
C          -4.96517550834667  -11.62482099438529   10.65333896354020
C          -4.96990835913768  -13.01142941188690   10.70642593938322
C          -4.96276526859676  -13.77562496477152    9.54794272306975
C          -4.93037477103909  -13.17577103524771    8.29766103853081
C          -4.91250088782940  -11.79307515117283    8.23495802900729
C          -4.94642676524239  -11.01003542882776    9.41151366758508
C          -4.98422058315191   -9.60135856640736    9.03922303166369
C          -4.89640917121920   -8.54063568317173    9.90065931238338
C          -4.73924389805759   -8.66925205867481   11.29773164527990
N          -4.60955320211853   -8.69718099806184   12.43766548893365
C          -4.90497898230226   -7.17986770875099    9.52924646628505
N          -4.90293645084467   -6.05498370892836    9.29802349545619
C          -5.14443432042541   -9.55477605461350    7.58878105070349
C          -4.86506054069657  -10.89799933860891    7.09116732230452
C          -4.39773781113568  -11.23029365063284    5.84739790769765
C          -4.13788678943760  -10.30414354811933    4.81928367957450
N          -3.88294229203191   -9.58842838713684    3.95799647710133
C          -4.01785498188527  -12.53801072232081    5.47464296093224
N          -3.68570951022148  -13.57160970621338    5.10515522822242
C          -5.55806939142473   -8.45123345176358    6.88875515209395
C          -6.10974094821275   -8.40980879114372    5.59280795020666
S          -5.96881150215760   -6.96287586099368    4.64086090095324
C          -6.76443955290023   -7.64960446534395    3.26859641884046
C          -7.14164307306487   -8.98329404087353    3.53880750210302
C          -6.81525009905794   -9.38723556653600    4.87424229542933
C          -7.26036566819922  -10.63498435279959    5.34288600423173
C          -7.85056050562970  -11.52224385459122    4.48186113514356
N          -8.40390737178442  -12.73193363543890    5.05424859168574
O          -7.78147886219971  -13.22976311069476    5.96492576319009
O          -9.47304002449686  -13.10004963733832    4.63337566277120
C          -7.99488802229497  -11.19517603456767    3.11127063874501
N          -8.37534895518936  -12.18516859336514    2.13415988362121
O          -8.08271214897217  -13.33399061824421    2.36864309446574
O          -8.90920218102816  -11.77878218970634    1.12454347722168
C          -7.66806217350616   -9.93769648497108    2.65993838023841
C          -6.92025463569283   -6.87054271201966    2.10020824208821
C          -7.81092520626371   -7.11471862353623    1.10241037182854
C          -7.91516907923795   -6.42394202878331   -0.14535303373733
C          -8.86071206855222   -6.87001924063098   -1.05381853529844
C          -8.94044065355013   -6.31005433012253   -2.33763044901184
C          -9.74089778369671   -6.62430042591905   -3.43172168562484
C         -10.83551932463435   -7.62407990758383   -3.54558643144838
C         -10.33816247803467   -9.06293123136979   -3.29620737177804
N         -11.22004638811947   -9.98067273942636   -3.97712357526593
C         -12.01647915864131   -7.27454975571242   -2.61616195459889
N         -13.16865531698825   -8.08534949247326   -2.96603025657259
C          -9.32556056269784   -5.74841788640831   -4.50400030445249
C          -9.71800748379590   -5.69211367374763   -5.78829039036916
C          -9.16745518198422   -4.66761834381416   -6.72734233768483
C          -8.10052254731376   -3.79988164142180   -6.14410985801423
C          -7.68319102545759   -3.90886725115755   -4.86989525653578
C          -8.26559541850356   -4.86649674561234   -4.00150235351347
C          -8.02988012812590   -5.22424073299771   -2.69096383934123
C          -7.10633834189055   -4.75247791831009   -1.72746486247059
C          -7.04871683625271   -5.33672508681329   -0.50595116650984
C         -10.38582681964243   -3.91833534762273   -7.20176520034002
C         -10.61697642874928   -2.61137197410877   -7.05641606952248
C         -11.89172742162000   -2.03582745330020   -7.39059081919911
S         -12.05616791326326   -0.51276959224641   -8.17308217404781
C         -13.79090377977922   -0.63160867371637   -8.26265732885707
C         -14.22856335322967   -1.82258171492518   -7.65912997318324
C         -13.14228196743693   -2.61259246764793   -7.15525644570269
C         -13.41330419795620   -3.77755537522878   -6.41598324299035
C         -14.70628063302163   -4.20161388747437   -6.26596722144205
N         -14.94033236060805   -5.29497158976856   -5.35465979136693
O         -14.08168938130250   -6.15133900435136   -5.29810386354215
O         -15.92253580514242   -5.24012993434320   -4.65581137384059
C         -15.77499072484102   -3.48343314034339   -6.86900688238830
N         -17.10768260500595   -4.04421917974963   -6.92011486258445
O         -17.18035108425496   -5.24995124213188   -6.99176558730605
O         -18.03259827745533   -3.26899903756916   -6.95881117213080
C         -15.54187847556860   -2.30161469370021   -7.52641290520983
C         -14.57404380264551    0.37670086960071   -8.85032414642020
C         -14.06270659069276    1.50436467440260   -9.42427374078094
C         -14.87760991312636    2.50720065519080   -9.97939395280744
C         -14.46084959560760    3.73574283947372  -10.42289516715673
C         -15.21368192287081    4.59157482155939  -11.33211197079439
C         -16.55280233101163    4.52924825009430  -11.60937630755439
C         -17.46697145225467    3.63331880631469  -11.01482339904965
N         -18.26268663217510    2.93648716112424  -10.56809550675190
C         -17.21523097149613    5.39087293570313  -12.51036066204173
N         -17.81430167320989    6.05536163790685  -13.22890974595969
C         -14.26305024729347    5.53910385286047  -11.89931242599110
C         -13.01430962363848    5.37403104375204  -11.25714328175182
C         -11.92409478730510    6.14407099685621  -11.62709965511156
C         -12.08621690970697    7.07962677150298  -12.63820403680224
C         -13.31318443484692    7.24903494208480  -13.26345822157914
C         -14.41236788325999    6.48388979813308  -12.90207786878575
C         -13.15794335276276    4.35526976347257  -10.22752584151589
C         -12.32157574847939    4.18399478291937   -9.15520712896023
C         -11.07936307771914    4.83922872773171   -9.01576929786433
N         -10.04820602178718    5.31659113001116   -8.85442747401200
C         -12.62476652571695    3.42568655677576   -8.00406106017831
N         -12.82278758870293    2.86527947264254   -7.02181701623075
H          -4.98636387444992  -11.04977797393051   11.56436721448022
H          -4.99072915528658  -13.50050900805986   11.66830272652117
H          -4.98803586133604  -14.85201009682443    9.61704154395774
H          -4.94904935373251  -13.77501071634515    7.40244180513710
H          -5.48609980549981   -7.49090206576092    7.38212863945710
H          -7.18482690577210  -10.89447998657798    6.38780324381709
H          -7.77112539176698   -9.73507582019481    1.60621300890835
H          -6.28300752339404   -5.99865329340976    2.04854986662148
H          -8.53186953104535   -7.90833494859347    1.23838141046507
H          -9.51873658823998   -7.68124487950676   -0.78140854566319
H         -11.22379667829378   -7.60959775344053   -4.56811429911135
H         -10.27393032111528   -9.24467129199669   -2.21217961084218
H          -9.33075351286106   -9.17876244118977   -3.71259780114952
H         -12.17632293893557   -9.81068250334575   -3.67371355557038
H         -10.96553241704362  -10.94417260037805   -3.79840135746415
H         -12.20948227862526   -6.19006912947971   -2.69236302655851
H         -11.74818646242906   -7.48911068248632   -1.57841626327897
H         -13.52645764784482   -7.79815636875350   -3.87309843299994
H         -13.91358336627649   -7.95731278187228   -2.28969172688038
H         -10.46899607871786   -6.36159421875194   -6.18524581200617
H          -8.75312936892982   -5.19642696323509   -7.60095757289468
H          -7.65582419790771   -3.08236615405614   -6.81680026442702
H          -6.89573973788081   -3.27289136069296   -4.49320922067581
H          -6.44559228750873   -3.93727024652949   -1.98218066216730
H          -6.33355386750922   -4.98423301722309    0.21964896315839
H         -11.14095702775245   -4.54332586884241   -7.65997381840849
H          -9.84933642963939   -1.94179523126553   -6.69542855772572
H         -12.61720411033534   -4.30859833077406   -5.91643737595806
H         -16.37957558508350   -1.77089070326406   -7.95226372176878
H         -15.64748314036096    0.25431553751298   -8.80198969183414
H         -12.98752928016738    1.61087041048696   -9.47826656872084
H         -15.91616338515546    2.24424906193443  -10.12490890500753
H         -10.96392122945957    6.01840887152557  -11.15377164162616
H         -11.24383844730843    7.68231678913415  -12.94105210166163
H         -13.41692551418715    7.98458018985561  -14.04624244403353
H         -15.35615819006782    6.62618696838001  -13.40196485099162
