105
 SCF done       -227.007098467536          0.000910784768
C          -0.10950045407776   -6.77640888276959   -1.26094443177524
C           0.40516579346463   -8.01132025055343   -1.62416851979639
C          -0.07616789035034   -8.69101329164734   -2.73595070852571
C          -1.08152520354685   -8.15104001356097   -3.52231342444090
C          -1.60202101821297   -6.91454609275316   -3.17293149436114
C          -1.12018674584868   -6.22479096457948   -2.03421501662902
C          -1.85915937426737   -4.98328384691123   -1.88056967221028
C          -1.60106255145662   -3.97669545706209   -0.99971007950981
C          -0.52100655503319   -3.99037154417470   -0.08663693494608
N           0.33911184952522   -3.94041626257864    0.66989179115355
C          -2.34072704320642   -2.77570381084133   -0.88709294289977
N          -2.89406040536283   -1.78463135916907   -0.72324612189929
C          -2.94895013001299   -5.02998822903408   -2.86659258491375
C          -2.61837807470017   -6.10255643920340   -3.81283991024022
C          -3.05885918290191   -6.21518611002384   -5.09941190235778
C          -3.83469121133955   -5.24278943512476   -5.76212061662147
N          -4.42487959141025   -4.45943740178924   -6.35855833895159
C          -2.71805673208797   -7.28687401419865   -5.95606789974049
N          -2.49412446377262   -8.13897276327925   -6.68927311936530
C          -4.10491046103381   -4.35174770122985   -2.75436686870959
C          -5.32332768975802   -4.53179976879388   -3.52694152638923
C          -5.91827774277573   -3.43003379253670   -4.14206143709424
C          -5.39782540530919   -2.04263053740786   -4.22016003092668
O          -4.38322370948739   -1.60539099107480   -3.74666914870514
N          -6.32559445792232   -1.34652504619837   -4.99497153426907
C          -7.36798679579582   -2.16810457541273   -5.45191345635817
O          -8.27509405174075   -1.80071669971803   -6.14397572333077
C          -7.08466126582814   -3.51682940123146   -4.89603690524270
C          -7.75779315453252   -4.71395233524137   -5.05848176233168
C          -7.19713968807409   -5.81627318511672   -4.42328469128013
C          -6.01653324730722   -5.74492705013866   -3.68100264709738
C          -5.61204958780176   -7.03042302326934   -3.07432613015983
O          -4.66318197502190   -7.25010388008107   -2.37702634013774
S          -6.78177982869136   -8.30146300265574   -3.53957767825988
C          -7.80393339111045   -7.16310150324282   -4.49025685007520
O          -8.79767734428307   -7.48818901070974   -5.05792963374711
C          -6.27571414853483   -0.00525008606237   -5.35760457376357
C          -5.45285834173299    0.90466021477061   -4.81436769702915
C          -5.40359472410807    2.27599116914698   -5.20138752898264
S          -4.52931883079053    3.40065878111690   -4.20781405531686
C          -4.83438183232112    4.75386249179724   -5.24248432658262
C          -5.60780326099676    4.34801945572363   -6.33028548286719
C          -5.93869719278326    2.95432213322469   -6.28620302003755
N          -6.68874730475694    2.66686019092886   -7.38225833464901
C          -6.83935112766115    3.82785701328153   -8.10180793659563
N          -7.55725859880490    3.79126455751228   -9.31568589143479
O          -8.02527615393691    2.70877337166073   -9.62969706574627
O          -7.65404454585437    4.81238964529587   -9.96099384967182
C          -6.21111884248630    4.88894950866480   -7.49012689682384
C          -4.27627942315860    6.05818695620823   -5.01873425847897
C          -3.71187763193562    6.78070986225795   -6.08583084124590
C          -3.42359818600103    6.33697928716416   -7.46797018742012
O          -3.50648242336303    5.23989484715743   -7.95093167458484
N          -2.92160102334011    7.47216556538429   -8.12845943094533
C          -2.77307176192380    8.56486840931132   -7.26502671370206
O          -2.36919254244072    9.64633901777967   -7.59265165277701
C          -3.23478628839334    8.08400419648288   -5.94126271762381
C          -3.23461633928001    8.74060908855492   -4.72553210877404
C          -3.74957421503191    8.02384378976016   -3.65145520347303
C          -4.26592851045991    6.73523263021271   -3.77679062130745
C          -4.87238423803511    6.22347035036679   -2.53200200138216
O          -5.46675145933130    5.20185381524043   -2.35748503516790
S          -4.64008223734621    7.42623848947507   -1.21399021149221
C          -3.81990667543373    8.59898523391147   -2.28913604583443
O          -3.41492135576391    9.66195643269306   -1.93240478499290
C          -2.80162888605927    7.63189187517432   -9.49702009821569
C          -3.04248921151021    6.68165238923676  -10.41064292152877
C          -3.04251101054458    6.90760306218393  -11.82371399907563
C          -3.47606343753846    8.00125358249611  -12.49812695655961
C          -3.19768737414353    8.23076460076262  -13.92141217239396
C          -2.82483547119896    7.30257217163345  -14.85142165727659
C          -2.66346303633423    5.91726593754758  -14.62501539719573
N          -2.51299120998728    4.78337840203105  -14.52979263357983
C          -2.58443410434325    7.60203804448542  -16.21158070856569
N          -2.37442028536016    7.77277295207100  -17.32639123217684
C          -3.41019319535838    9.64731931945648  -14.16753825758365
C          -3.97861104628861   10.23026713066767  -13.01223462224935
C          -4.24298296230716   11.59086607046409  -12.97055863903586
C          -3.95580040515771   12.35753959041783  -14.08888785620405
C          -3.41451610137920   11.78189423722728  -15.23051065899355
C          -3.13250716683354   10.42584984785138  -15.28124798410658
C          -4.18065503616180    9.19320214762688  -12.01050309912753
C          -5.05094055725594    9.30234965479906  -10.96240699142325
C          -5.80714405294968   10.46943978481323  -10.69777796101985
N          -6.45563674238005   11.37440835764556  -10.42236674263936
C          -5.38769314233132    8.32817330335118  -10.00094846715019
N          -5.74017088906751    7.65433613138609   -9.13999763049008
H           0.26828777636355   -6.26788557200755   -0.38910099713215
H           1.18874321912730   -8.45270629452871   -1.02767800082885
H           0.33518695081902   -9.65535841148664   -2.99140635391405
H          -1.45521854656736   -8.69291153216159   -4.37578675603107
H          -4.17619739503845   -3.57348882804273   -2.00483360018541
H          -8.65836608248495   -4.80135288868298   -5.64498113791839
H          -7.01448862735439    0.23539228075136   -6.10865259021279
H          -4.77874670021000    0.61564102278168   -4.02181149661235
H          -7.06299476614328    1.78419010780957   -7.69466061764079
H          -6.19697200937437    5.89591758838220   -7.85573445124765
H          -2.85973879034976    9.74408426177059   -4.60521645043294
H          -2.50838488619922    8.64035819982811   -9.76547679131927
H          -3.21123813373657    5.66241956211833  -10.09468861589555
H          -2.63975541518773    6.08974793855174  -12.40661268509164
H          -4.64735358740576   12.05621657874160  -12.08696482635056
H          -4.15351385337389   13.41812726034478  -14.06741260052566
H          -3.20105495098125   12.39840004597552  -16.09006381409895
H          -2.69787087812649    9.99767134038400  -16.16920708604185
