111
 SCF done       -229.509095156254          0.000862306974
C          -5.98676265808216   -7.61831331380171   -3.03942132522645
C          -5.87518314085889   -7.51776914144903   -4.41734047074736
C          -5.00602136472097   -6.60526444253420   -5.00155724232062
C          -4.21564772770009   -5.77427613960164   -4.22358901087415
C          -4.31085296164414   -5.87014823439056   -2.84352564719265
C          -5.20602780073914   -6.78974451527796   -2.24651825664995
C          -5.13725435778195   -6.65341419087401   -0.80182772980924
C          -5.77344680584274   -7.42780323924323    0.12192159390861
C          -6.58418629371716   -8.53968544279396   -0.20642140768188
N          -7.24763915693471   -9.45375363091222   -0.40402346084635
C          -5.72148282255109   -7.25654438958243    1.52534218582115
N          -5.75875608336142   -7.17498169646313    2.66900279924398
C          -4.26183552173065   -5.50228928540097   -0.53454282784972
C          -3.58853837439651   -5.17407406679458   -1.79611962931189
C          -2.41695487201433   -4.48935515632857   -1.94325979021733
C          -1.59300220889103   -4.05776901648551   -0.88419328470272
N          -0.85688212580051   -3.71935174527388   -0.07092776621910
C          -1.83417871619523   -4.18673502906867   -3.19537414901325
N          -1.32493475187776   -3.88697710796323   -4.17795242358419
C          -4.24528918696053   -4.81531134488893    0.62263630178123
C          -3.63296212596355   -3.52694799707917    0.89221067827806
C          -3.87133487366356   -2.37484967028535    0.14151153313513
C          -4.68690389906326   -2.17757719133112   -1.08262049165591
O          -5.33002731721538   -2.97980306854822   -1.71254247230691
N          -4.57221063982329   -0.82693184471026   -1.40480131234501
C          -3.80526735313406   -0.11896892760820   -0.47544826857022
O          -3.62814065556193    1.06803246326682   -0.45046337742262
C          -3.33062820865967   -1.13687397212225    0.49828782996546
C          -2.52089292487479   -0.96773333955049    1.60415450289761
C          -2.26818397473247   -2.11118726187666    2.35403324750388
C          -2.80813799041352   -3.34471519569197    2.01508713426928
C          -2.35754934509462   -4.46673366804891    2.86140369938525
O          -2.61376419482083   -5.62397370830841    2.71922880912698
S          -1.30117836628953   -3.82189924547032    4.15879805237108
C          -1.40631689021465   -2.13321554672188    3.55854969869333
O          -0.86626584962752   -1.20517218181420    4.07603479780979
C          -5.26475898479211   -0.27019840230748   -2.48710800861076
C          -4.86176382821730    0.85643476187908   -3.08518406325804
C          -5.54656771519325    1.60553137375306   -4.09571683975981
S          -4.61253608359621    2.79996072740836   -4.93430348557023
C          -6.01837700178697    3.38491329224893   -5.76523472076415
C          -7.14252548476500    2.67820162395651   -5.41391335992837
C          -6.87548242977630    1.66423173710027   -4.46567076501154
C          -7.95175153506654    0.78966754196255   -3.90470473921211
C          -9.34301138069032    1.40013953229271   -4.13150179743924
C         -10.35135156751529    0.42000836408550   -3.79359749610989
N         -11.12273978417496   -0.38103075006919   -3.53338644336290
C          -9.48400545338189    1.84430247480278   -5.60157266800008
C         -10.84000140306083    2.26320368933709   -5.87759761045667
N         -11.90312870499181    2.62865686090367   -6.07840200853732
C          -8.52693230659765    3.01176948693486   -5.87411792957707
C          -5.83543209019137    4.57720640695961   -6.57438311934032
C          -5.27285811398418    5.70996236895196   -5.97576882737202
C          -4.97134664989189    5.94057303070885   -4.54881170561146
O          -5.26699216826641    5.29755709358546   -3.57667444694528
N          -4.24620833750843    7.13987280111503   -4.50664678659126
C          -4.15991759122460    7.75765234289544   -5.76166996282653
O          -3.62364922889732    8.80232520700272   -5.99303058571531
C          -4.86951494378866    6.83527952420614   -6.69333503782969
C          -5.07824114165532    6.93405624280857   -8.05695378760137
C          -5.68998853023597    5.84015553764008   -8.66023928628877
C          -6.04470109897006    4.68700869075369   -7.95874334582460
C          -6.56343827751902    3.59887201098477   -8.81139203548756
O          -6.91285334708700    2.50685738372199   -8.47340935979476
S          -6.60762417490555    4.15511098212324  -10.51657943824141
C          -5.95161009179272    5.77913394649458  -10.11661311688572
O          -5.76804331409482    6.63593092330408  -10.92291581772974
C          -3.49905723385660    7.40192987822792   -3.36963171333383
C          -2.41647299994381    8.18320231622324   -3.29042723222474
C          -1.57585454045264    8.20387758489974   -2.12689781905077
C          -1.27614859752056    7.15428957577433   -1.32203233106899
C          -0.62881281839217    7.29834411535366   -0.01049055247358
C           0.13923690452205    8.34260672380852    0.41671656580217
C           0.49321637056638    9.47113680874052   -0.35654836076941
N           0.83148719195019   10.40863815445413   -0.92514059202335
C           0.73897218033845    8.40894019581429    1.69490381062527
N           1.25044504493913    8.52860867262500    2.71441484646449
C          -0.93986468793599    6.09570915093075    0.74502061395663
C          -1.56263292397216    5.16359889791864   -0.11706527449830
C          -1.99836023336973    3.93754337527002    0.36272986671193
C          -1.79081967484789    3.64520444486929    1.70168357453655
C          -1.15977287677669    4.54911243497845    2.54581265233308
C          -0.73183318446641    5.78286068082880    2.07997684313985
C          -1.61944405993092    5.72968994321994   -1.45516050994062
C          -1.73356774093018    4.98342282039743   -2.59387918177254
C          -1.91402238415518    3.58254444237494   -2.60843675888926
N          -2.05739232871786    2.45032164596683   -2.73017044242887
C          -1.64904850298006    5.44513254461809   -3.92450560679908
N          -1.59580271446808    5.69899010698710   -5.04313789816703
H          -6.67378431300488   -8.32477597365189   -2.60365811012374
H          -6.47888107817634   -8.15616375036895   -5.04387407577208
H          -4.94434303948328   -6.53982886735186   -6.07695853880809
H          -3.55298436979933   -5.06341895592396   -4.68929052038232
H          -4.77943998469450   -5.22647385495913    1.47008165138093
H          -2.09315508387797   -0.01420759089331    1.86768300908206
H          -6.11181602487926   -0.86757806877779   -2.78857553520857
H          -3.92577838720073    1.30166219039873   -2.77166047503568
H          -7.78848022298101    0.64192564340114   -2.83386883219791
H          -7.91111646793403   -0.19374857106901   -4.38641208788329
H          -9.48045987784015    2.27294596217688   -3.48078780454816
H          -9.23815901097078    1.00403336574668   -6.26196012137660
H          -8.87877905381407    3.90413482947553   -5.34303572823027
H          -8.53069333415187    3.23952528143952   -6.94019883634412
H          -4.77290686504501    7.79374975367987   -8.63175469806183
H          -3.83886206348102    6.80991170769748   -2.52734722031588
H          -2.15246849652205    8.84581641473018   -4.10185497635126
H          -1.14920365073761    9.16735994620989   -1.88248316118116
H          -2.50648800815426    3.22729318819895   -0.26883263023355
H          -2.13459727331527    2.70014592656789    2.09228111283478
H          -1.00572879272158    4.29383902955126    3.58294188452402
H          -0.25778049382226    6.47974255932172    2.75119726560069
