108
 SCF done       -225.440797816176          0.000762176435
C          -3.22513868678940    5.97761766867412    5.37207792951675
C          -3.58621546603406    6.51312314383755    6.59853441080354
C          -4.86034605662772    6.32202844941692    7.11757744406220
C          -5.81355024058390    5.59743621193039    6.41975696274740
C          -5.46771824456981    5.06155791276549    5.18870452456285
C          -4.16600323546087    5.24461834962299    4.66373141641187
C          -4.06147450526909    4.54743964350249    3.39342486527162
C          -3.01011215710227    4.57982276573773    2.52686349551272
C          -1.84334405861590    5.35176638215737    2.73516205529969
N          -0.87639314770544    5.95878339451695    2.84224670947155
C          -2.92439455695193    3.87485020458865    1.30302646250879
N          -2.76024486950055    3.32251312739082    0.31127631769729
C          -5.30921207819197    3.78509445280839    3.23657518188846
C          -6.25212218664257    4.29944675126037    4.23626602985384
C          -7.61350936848762    4.21721839655757    4.19126744481226
C          -8.35275612976604    3.69294219199242    3.11157233678533
N          -9.01025141427685    3.32243666010749    2.24657878421589
C          -8.46615238860242    4.72888243742376    5.19630505263582
N          -9.20830635826260    5.10513760813911    5.98510734058036
C          -5.43890709672728    2.70523130200494    2.44515432511682
C          -6.52045178907483    1.73626954957508    2.39485565485683
C          -7.10727278231691    1.43261664766639    1.16600226907919
C          -6.87886404317545    2.10356511343032   -0.13857800574736
O          -6.13750660535042    3.02326354475794   -0.36669084787477
N          -7.72755883792533    1.46105520598732   -1.03742533780711
C          -8.50144504933024    0.46582670255965   -0.42250275499853
O          -9.29360467231662   -0.23856701694677   -0.98343541888758
C          -8.10915146907690    0.48108873781445    1.01269671814278
C          -8.58697711388220   -0.24820935224587    2.08648463670255
C          -8.00532086312681    0.03190911214798    3.31792228922877
C          -7.00291450817322    0.99029594499333    3.48387415631872
C          -6.50813152931716    1.10696481073395    4.87009287218153
O          -5.64907219328127    1.82923081748336    5.28879029076853
S          -7.40988964894103   -0.02828402679511    5.91985346775200
C          -8.40319479617516   -0.66516949338877    4.55883607387775
O          -9.22852940726456   -1.51290865120492    4.68809091564690
C          -7.86065822239316    1.70966013662354   -2.40119824988449
C          -7.14335159806972    2.61232495918330   -3.08615165311752
C          -7.23773129472320    2.83794113023515   -4.49429845863167
S          -6.32779101186699    4.14062540667491   -5.16672348221507
C          -6.90607525544070    3.79067262299127   -6.75057189790797
C          -7.77851926698360    2.70321960180804   -6.76114211451183
C          -7.96140555160320    2.15163494644213   -5.46669424306784
O          -8.78556822666319    1.14944319974585   -5.06087364114007
C          -9.08310634430911    0.06695086106556   -5.91735978896186
C          -9.73001459757995    0.47366076906769   -7.23687180599681
C          -8.69711828131945    1.01455859147488   -8.21768892751831
O          -8.29952949683772    2.34528395020536   -7.95979660876300
C          -6.58008628724672    4.57477698941658   -7.91206426962202
C          -7.58713428441324    4.97017283161571   -8.80756929231659
C          -9.05684042905540    4.88511411762249   -8.67082417525181
O          -9.74530032228789    4.59216469372922   -7.73519900812610
N          -9.57525975233239    5.32745019017736   -9.91205239917391
C          -8.57197559801323    5.79513817087405  -10.76511289490269
O          -8.73134031758160    6.25796992770912  -11.86237587712602
C          -7.30547793794204    5.60652855860380  -10.01644623003960
C          -6.02269838479790    5.97690826714351  -10.37507215415000
C          -5.02246872949530    5.65291071802782   -9.46654621734829
C          -5.27197718711209    4.95107639404474   -8.28768458338705
C          -4.04732801565876    4.56422923947282   -7.56221895224443
O          -3.93447325214792    3.84333742824472   -6.61830437148143
S          -2.61771532518516    5.30228943742864   -8.37935763071137
C          -3.60113480900817    5.99047027029145   -9.70549042438736
O          -3.15074322296559    6.61161903818299  -10.61888808254853
C         -10.91878048067011    5.21047733015386  -10.19709162922166
C         -11.44546273419561    5.33431484235196  -11.42845695979790
C         -12.82716027260642    5.13897563885363  -11.70048682210832
C         -13.33123669439599    4.88944879636445  -12.94082376365289
C         -14.72724411852915    5.04373341576156  -13.34434991289118
C         -15.82216600169479    5.05552098100973  -12.52663837804646
C         -15.78293823839093    4.85798893406023  -11.12921087045972
N         -15.81683212672954    4.69229159187445   -9.99411087816759
C         -17.14882683273827    5.21705105082804  -12.98207317260121
N         -18.24723804322441    5.34230204857057  -13.28871632319720
C         -14.72767908435480    5.17299172713272  -14.79483364700868
C         -13.41981116357413    4.93496095578290  -15.27853972633266
C         -13.14349638178038    5.01378524923332  -16.63375815817339
C         -14.17711740061651    5.32910099175374  -17.50269701588629
C         -15.46300356765265    5.55436882523200  -17.03104192519908
C         -15.75256119608344    5.47871245403214  -15.67695110124753
C         -12.56642861188369    4.59849671279728  -14.15030105934170
C         -11.37717347371664    3.92422901420407  -14.21389043822698
C         -10.70720930907576    3.63197827619979  -15.42240875197686
N         -10.11708583790786    3.37464272829035  -16.37184871954002
C         -10.73937151475997    3.31607551522226  -13.11077658319637
N         -10.20414991379205    2.74284893485160  -12.27211361572204
H          -2.22872964415466    6.12647734802543    4.98968627894709
H          -2.86118544460347    7.08187693839514    7.16025805742588
H          -5.11323700067264    6.74059045167464    8.07953516887581
H          -6.79492133963903    5.44606859398251    6.83859858845664
H          -4.64429840641323    2.49101410696285    1.74111755625036
H          -9.36780053584499   -0.98539075992356    1.98953020316233
H          -8.60719825208339    1.08270989797514   -2.86430575132208
H          -6.41988611815333    3.23006965346297   -2.57433008288882
H          -8.17056701841497   -0.51631944794845   -6.11372385166304
H          -9.76972834145261   -0.54508432713119   -5.32748580938817
H         -10.48937078975896    1.23627194305758   -7.05254459917489
H         -10.21049206829224   -0.39917507656472   -7.67844920488928
H          -7.81299344339913    0.35908541212413   -8.22989106992841
H          -9.11249068637820    1.06386963126384   -9.22740235192524
H          -5.80178666216036    6.48609650869049  -11.29922266808316
H         -11.50967825764698    4.91488305079707   -9.33886717746036
H         -10.79817625923632    5.59555459339691  -12.25270852217201
H         -13.51014868665445    5.25835805789749  -10.87119083238770
H         -12.14735510233089    4.84812570748984  -17.01079504842767
H         -13.97564186512283    5.40099504013862  -18.56044998605594
H         -16.25183169166591    5.79635511098036  -17.72661194895240
H         -16.75537883282619    5.66223440021230  -15.32770612821728
