109
 SCF done       -238.107710687940          0.000978037558
C         -12.90698001313066   -7.76388826542230    0.83645487323707
C         -13.19311277218975   -8.32926681658275    2.06937396999229
C         -12.51131551926849   -7.93703754214936    3.21441423980594
C         -11.52802008981208   -6.96170904692722    3.16090845739036
C         -11.23488047215764   -6.38471720824653    1.93491520566205
C         -11.92190535836245   -6.78996164746335    0.76514834471243
C         -11.39480889977361   -6.05976795200848   -0.37450867027839
C         -11.88285821832054   -6.06097278974001   -1.64657121775001
C         -13.03392539724445   -6.77963393954927   -2.04581557542909
N         -13.96547872160558   -7.32792941665413   -2.42828140826215
C         -11.34408516871414   -5.33706121748473   -2.73621395421592
N         -10.96175815657020   -4.79991287188998   -3.67453648503273
C         -10.22141182449472   -5.32155167464313    0.11706367222918
C         -10.29148025180991   -5.34130699273573    1.58314934422186
C          -9.71297405613841   -4.44648124517716    2.43522086289290
C          -9.01244182429451   -3.29445776603684    2.02425237266041
N          -8.47076189447561   -2.32275197360089    1.74138921036669
C          -9.82042509262418   -4.51997654025931    3.84317015477061
N          -9.85949418986640   -4.53767362744478    4.98870365137343
C          -9.20850872834754   -4.90649783851131   -0.66362688908904
C          -7.90099059934463   -4.40869608939081   -0.26871051507059
C          -7.44228192370364   -3.19983135821879   -0.79527227308522
C          -8.19401078612428   -2.22195882253006   -1.61151648271039
O          -9.32814577265016   -2.27312000685135   -1.99897458223195
N          -7.30249014585183   -1.16088378505888   -1.84077984722033
C          -6.06275697353448   -1.36099154154875   -1.21329475902198
O          -5.12436265212233   -0.61837590900161   -1.24369892880381
C          -6.18402694773266   -2.67487673887943   -0.51941200405302
C          -5.28725063602350   -3.33584327112018    0.30093784075422
C          -5.72431960191217   -4.54517993218369    0.82835903746847
C          -6.98756302752436   -5.07873130793435    0.56159487275732
C          -7.23331259158363   -6.38712123728186    1.20429539442760
O          -8.21499478600791   -7.06971903712200    1.13108327536648
S          -5.80357610733208   -6.85219436255701    2.17191473836523
C          -4.88341962824388   -5.36960766792377    1.72371705520550
O          -3.78208234283774   -5.13742693276369    2.10814889223806
C          -7.70450917334466   -0.06544496342319   -2.58125946142512
C          -6.91546605102900    0.95493571369587   -2.96007555838997
C          -7.39460720752557    2.07137376712157   -3.71616331646497
C          -6.47686753128238    3.03034336552214   -4.20763792119592
C          -6.89039656238424    4.09487187705352   -5.08362333372713
N          -6.00810990696284    5.06559544234849   -5.36052452675847
C          -4.76834607834606    4.98091065162867   -4.95574290235441
C          -4.32060197453152    3.80526642374753   -4.26364148518744
N          -5.18463251979042    2.90567518172375   -3.88055379115747
C          -2.94628092378983    3.64157976662876   -3.95563178367691
N          -1.82924367868773    3.54378296398004   -3.72554872294797
C          -3.88781878906303    6.06835369834095   -5.18098575941117
N          -3.15543229163609    6.93188982824561   -5.34957313176928
C          -8.21152339843709    4.19037694083768   -5.60411006618579
C          -9.15420346291682    3.39880787044311   -4.91381946782218
C          -8.74172204574906    2.32929738203305   -4.02031031294312
N          -9.79958740758430    1.67349014554585   -3.52823119356009
S         -11.14104582851476    2.35368475976356   -4.05596544929584
N         -10.48326462324539    3.49122875160046   -4.95825392195327
C          -8.45208518029657    5.16350942747848   -6.63958050984303
C          -9.65651303196756    5.82377208437955   -6.96245141461053
C         -11.06489908294737    5.39200620537568   -6.97935915662962
O         -11.56019116235031    4.29947097094236   -6.99160281043297
N         -11.82443589994544    6.57215484870164   -7.18786712969126
C         -11.01645933327987    7.65414482600925   -7.54699850512094
O         -11.39719841495664    8.75218099151590   -7.84101197382762
C          -9.63361670345788    7.12268651088159   -7.50088813449751
C          -8.47621626769239    7.75789428109290   -7.90340659790728
C          -7.33693452856590    6.95779159602085   -7.91401632546069
C          -7.33431966314667    5.68659882975805   -7.35228072927849
C          -6.14586304707933    4.88831430203543   -7.72784444037367
O          -5.99817091874510    3.70130501607587   -7.67045653600450
S          -4.93932346560233    5.96765159130291   -8.50754001156977
C          -6.06356968474014    7.37042869590638   -8.53485811744159
O          -5.79105667977797    8.42894963358467   -9.00705235620384
C         -13.18456114788242    6.54481792383284   -7.00302705829998
C         -14.00148595503279    7.60912316429861   -6.92679237556247
C         -15.38252895410536    7.50195621700871   -6.57768432970734
C         -15.95692164686286    6.57283622081289   -5.76492398403262
C         -17.39740054682431    6.30802133369973   -5.71335585886268
C         -18.40699371166253    7.15387226295427   -6.07412454635232
C         -18.23761306054514    8.48151860774503   -6.52684714029487
N         -18.17828282665873    9.56902746412069   -6.88775519274452
C         -19.77854156804375    6.82612139420456   -5.98809200041823
N         -20.90619361721390    6.62119982453964   -5.94104876562051
C         -17.55499984524809    4.96279183107683   -5.17896672851473
C         -16.29539711985327    4.49620634487647   -4.73738197599315
C         -16.16269798089843    3.22721821215866   -4.19514300836256
C         -17.29093076739701    2.42870004397740   -4.09544154209737
C         -18.52990097719042    2.88804935216298   -4.52208440462596
C         -18.67615596676080    4.15495155611807   -5.06640595803162
C         -15.31490625930900    5.54925242982278   -4.93739893231268
C         -14.12035806690667    5.64199305190036   -4.27356953895653
C         -13.55162571861563    4.61024931745103   -3.51042042989601
N         -12.98570410091690    3.80148952425111   -2.91990492641883
C         -13.27915529595771    6.77674863056059   -4.25495243117077
N         -12.55457629409044    7.65926197945309   -4.14466161822528
H         -13.43757269545211   -8.08810760981055   -0.04378290240072
H         -13.95404536575539   -9.09152166787489    2.13669811105312
H         -12.74651781167415   -8.40000857193136    4.16031154716065
H         -10.99714004348000   -6.67499424354203    4.05395570470977
H          -9.34309244120069   -4.94331786846609   -1.73778952863164
H          -4.31016262637085   -2.94214998384653    0.53165922096471
H          -8.75359444536895   -0.10280131193193   -2.84797671638341
H          -5.86257904814217    0.97322028277620   -2.72111679622934
H          -8.46757962462485    8.77149764860656   -8.26920561326303
H         -13.55018183094896    5.53013930797018   -6.88634566144221
H         -13.63068131461358    8.59327763167369   -7.17368197095224
H         -16.03081596048898    8.23640816711232   -7.03684540451484
H         -15.20408352315085    2.85674293318809   -3.86993550735404
H         -17.20241217025627    1.43568738559403   -3.68245689382144
H         -19.39487664450018    2.24901377493779   -4.43337295942607
H         -19.64441933480079    4.49141243375733   -5.39815690152373
