109
 SCF done       -223.699539778795          0.000932566580
C          -2.00201242826009   -8.44328599835782   -6.48063678384788
C          -0.94943291285125   -9.34477722965381   -6.51638750430774
C           0.24539459030851   -9.07967885492733   -5.85934280734895
C           0.42535714335350   -7.90153174276310   -5.15162747328799
C          -0.61822927880199   -6.99044955248357   -5.10935615544540
C          -1.83951247541504   -7.26235613548257   -5.77212429445217
C          -2.75882488305401   -6.16091710128655   -5.54367767625092
C          -3.95579423437385   -5.94483832070259   -6.15690009041173
C          -4.50365193768745   -6.80970821538323   -7.13261538343564
N          -4.99519876984609   -7.46906927846007   -7.93173508260957
C          -4.79062035530861   -4.82040063012481   -5.95438093099955
N          -5.52515965673601   -3.94478046627724   -5.85811284919822
C          -2.12693778382546   -5.30609062353473   -4.52850202707741
C          -0.71145942342556   -5.68887231114951   -4.47604478022358
C           0.32533454119529   -4.90440238856958   -4.06314797927806
C           0.19396689890627   -3.55187958207161   -3.68702206366132
N           0.14173521613320   -2.43767839108915   -3.41623772118008
C           1.67244147217861   -5.33171485109426   -4.04046058333321
N           2.77797251097174   -5.63037276459284   -3.98428479194699
C          -2.80719298142597   -4.50764154177213   -3.68706812709749
C          -2.31806753361117   -3.81905761530209   -2.50433556829134
C          -2.57658499226273   -2.45627814643074   -2.36080209674006
C          -3.19559643364214   -1.55058218230964   -3.35341335888437
O          -3.58857552026532   -1.83099945578223   -4.45663979960950
N          -3.20172090010335   -0.29118992839213   -2.75412973847297
C          -2.59861466821595   -0.30290330885849   -1.48363697301373
O          -2.48659316636981    0.65312677231947   -0.76959853785445
C          -2.17742411543759   -1.71002492008574   -1.25556490636908
C          -1.49410206060750   -2.29053990319879   -0.20280823849806
C          -1.24251463455338   -3.65378133144034   -0.31836007705240
C          -1.63809241852829   -4.41034876011571   -1.42508624930189
C          -1.30360813653658   -5.84324653041204   -1.32231261156464
O          -1.55199486338248   -6.71731636132114   -2.10449323521532
S          -0.42221386831311   -6.13903895019859    0.20658855165130
C          -0.52796854390662   -4.41669195120511    0.72495469317879
O          -0.08148019545838   -4.01093271425105    1.75133771106637
C          -3.69929902669471    0.88290952679543   -3.30177986016984
C          -4.33538436170195    0.94963539740357   -4.48471107539414
C          -4.83313950374936    2.13787731485100   -5.07616148223700
S          -4.75265741559974    3.67895223812015   -4.31529382972317
C          -5.55402140698494    4.46541217526850   -5.62799347703270
C          -5.83778469672015    3.55998515862237   -6.66122626546310
C          -5.43126568453440    2.22950192390898   -6.34724206817743
C          -5.64446625975626    1.19115336203449   -7.26526240025715
C          -6.23102621255481    1.45454679661048   -8.48510041924753
C          -6.50287934010095    0.41461411468008   -9.46807171377827
C          -6.44590469977738   -0.89692169701339   -9.26153811844992
C          -6.56097917676330    2.79514741822730   -8.81268775199454
C          -6.37141057169151    3.82433513749865   -7.93864879121864
C          -5.93235494753150    5.84698087131771   -5.59499610222414
C          -7.21090225074087    6.23936733540012   -6.04254725796584
C          -8.38723482440879    5.40686745760394   -6.36552422497227
O          -8.57526216920096    4.22871489461252   -6.23694145063542
N          -9.37246539747585    6.30802035193773   -6.83399829163896
C          -8.95934887348154    7.63862695254548   -6.72929662154528
O          -9.60292861812996    8.60775032976506   -7.02856151204760
C          -7.58840121528026    7.57611251422350   -6.16470893806745
C          -6.76078601747154    8.61518210145385   -5.78286074058881
C          -5.52400245090131    8.24453260155958   -5.26846227139059
C          -5.10297293820341    6.91827531138672   -5.18014299147837
C          -3.71205276937439    6.77590212277732   -4.71592765156882
O          -3.05459343466523    5.78328600379719   -4.61143179218698
S          -3.03872752526859    8.40212427980140   -4.32827853039887
C          -4.53806918294482    9.24917017985866   -4.81100389134425
O          -4.68222283774594   10.43215746658876   -4.76374830424370
C         -10.51998887764453    5.83680231207480   -7.43576072966021
C         -11.33048706460530    6.58451675920535   -8.20480016660676
C         -12.42849403856702    6.03501112049885   -8.92259250860671
C         -12.97870750476054    6.60929602912467  -10.02742125122055
C         -14.28405490089786    6.28335656851399  -10.59855718267743
C         -15.00087019519320    5.13553796707587  -10.40786237833109
C         -14.56319875851546    4.02794647220623   -9.64935949577192
N         -14.26093734578741    3.09166346043979   -9.05840841025611
C         -16.26321514704171    4.88463305655483  -10.98873842822131
N         -17.28782356290340    4.61997737846681  -11.43212960617006
C         -14.67125729519084    7.41822060947996  -11.42410540026807
C         -13.58820369436465    8.32520789731351  -11.49688339768483
C         -13.70492377749301    9.50588448668945  -12.21244661791650
C         -14.90328454063872    9.77477237967821  -12.85610029213180
C         -15.96375442791625    8.88139742545449  -12.79365524645436
C         -15.86056151918916    7.69714135184393  -12.07974572128126
C         -12.46597856906028    7.76385042614269  -10.76113703671601
C         -11.15245685738699    8.11657551947741  -10.91551918945924
C         -10.72550188483671    9.22487816797544  -11.68089467775903
N         -10.31921523594810   10.11287693894915  -12.28303542323123
C         -10.04629740119011    7.37060071075780  -10.45371425954222
N          -9.09970825210163    6.78705740913273  -10.16695930139467
H          -2.92661952011299   -8.66877106396491   -6.98663134773465
H          -1.06517440356333  -10.27016713921257   -7.05947220006547
H           1.04586822710384   -9.80245386488689   -5.89584796860376
H           1.35240369753814   -7.71212002919937   -4.63543801184465
H          -3.85707959165724   -4.33125873397042   -3.88710133962494
H          -1.16408287476016   -1.73129361884422    0.65793323387504
H          -3.52390917058525    1.74840820244491   -2.67613202088267
H          -4.47744450704115    0.04640247312381   -5.05786460691813
H          -5.33555132976513    0.18924603740558   -7.01674677517056
H          -6.79604683387254    0.78101875240317  -10.44414006115328
H          -6.18746053636970   -1.33128742807140   -8.31103235755331
H          -6.67274770500497   -1.59403197380481  -10.04966797216205
H          -6.97817251208878    2.99981488942731   -9.78785897795002
H          -6.61670139660827    4.83614778314003   -8.22692932525830
H          -7.04937298001561    9.65017896869937   -5.86712786947743
H         -10.64580957082797    4.76671335091573   -7.32541198094673
H         -11.13445590235377    7.64198269353194   -8.30648817178849
H         -12.86499594054399    5.12748749385987   -8.52998741716409
H         -12.89170469477277   10.21147347250071  -12.26224081262135
H         -15.01041517296650   10.69352971508115  -13.41195389249285
H         -16.88616458678227    9.11109051094000  -13.30451770973842
H         -16.69585123553504    7.01770668685407  -12.03654232839111
