111
 SCF done       -231.028703858774          0.000624202698
C           3.06861800490487   -5.12108421073624   -9.61983924965777
C           4.41587211253598   -5.41425190899198   -9.47578822762702
C           5.12350706752300   -5.00439789281787   -8.35289691964561
C           4.50593306685430   -4.28200239545548   -7.34394956762915
C           3.16000680064784   -3.97855624025695   -7.47694539502052
C           2.43454179896785   -4.40397739535114   -8.61614463444313
C           1.05112028778483   -3.98143493410151   -8.48390208165141
C           0.07403055569694   -4.05098498660655   -9.43135652353756
C           0.27817708138051   -4.56700426356934  -10.73235557024244
N           0.38161991318920   -4.96823660130832  -11.80143873308221
C          -1.25611609221732   -3.59415403900470   -9.27848329010567
N          -2.35209055646185   -3.25693516043991   -9.24241445110730
C           0.91346056955423   -3.44956177340494   -7.12040881349085
C           2.27155008195215   -3.22560637733604   -6.61253798216991
C           2.63695454509443   -2.35157529172485   -5.63072463929375
C           1.75572187141942   -1.44770297962938   -5.00328975092114
N           1.08964561883964   -0.66035250626409   -4.49910587517589
C           3.96728694835810   -2.18340289481694   -5.18326452174734
N           5.02300968731679   -2.01713088676488   -4.76861876014752
C          -0.24896360169578   -3.40016438843279   -6.44661383340522
C          -0.47167882607577   -3.11863268801470   -5.03842314507997
C          -1.39772263346424   -2.13783347421792   -4.68639552212058
C          -2.10690249044943   -1.20516451807385   -5.58087972801601
O          -2.06752237389962   -1.11883886225791   -6.78059161055336
N          -2.86951554303896   -0.38420822855125   -4.74127557750322
C          -2.69823867475231   -0.69769307123380   -3.38698593799598
O          -3.24647997324514   -0.16232006411376   -2.46399349500175
C          -1.71624978726294   -1.81723329177748   -3.36822236522915
C          -1.12876724186042   -2.47958670552043   -2.30589482223870
C          -0.20977922530537   -3.46988895852878   -2.63674670329826
C           0.12080883201206   -3.79214836749026   -3.95668081648700
C           1.09921835032298   -4.88745781042183   -4.08155336836955
O           1.54172143787550   -5.37035994876240   -5.08624484959008
S           1.58603020358369   -5.43571345440558   -2.44926079611221
C           0.50026569891236   -4.26466189490135   -1.61465843358833
O           0.40522205002325   -4.18568257049245   -0.43032111205867
C          -3.65262214135474    0.61384694727745   -5.30061300876259
C          -4.50425146534745    1.42019932384406   -4.64707129933816
C          -5.29010894556938    2.41804843232032   -5.29690859381021
S          -5.78248593707299    3.79929159879318   -4.38903953082834
C          -6.49201006203821    4.57218520503695   -5.77147942103789
C          -6.39045968783429    3.74253288739615   -6.90459196991439
C          -5.72254970414479    2.50987573984069   -6.63065731033327
C          -5.62547952908985    1.54318869060684   -7.64920264018311
C          -6.09932566159659    1.82293640804757   -8.90362280903727
S          -5.99139378939234    0.64206223791936  -10.22255074569285
C          -6.70940834223825    3.07626486433230   -9.19643179474913
O          -7.16940540634395    3.37072904329182  -10.42641245915800
C          -6.86213744202709    4.00876727651042   -8.19729953413166
C          -7.03295500518778    5.86858425512019   -5.71590814561844
C          -7.14722252859732    6.60667923183021   -4.58069227078183
C          -7.68104960632409    7.92687524672563   -4.49351333647300
C          -8.34686309421302    8.33232107273816   -3.31716664347290
C          -8.56072765119781    7.58039853630033   -2.06772562943504
O          -8.19415632016935    6.48306315892712   -1.74213452541791
N          -9.32679989158091    8.42768027355413   -1.23377345518700
C          -9.60411299139565    9.65477488280828   -1.84788858437439
O         -10.20631040217557   10.57345044418601   -1.36222119460532
C          -8.97715223039084    9.56816616927874   -3.18861849905765
C          -8.98059334231624   10.50300989310199   -4.20671832770241
C          -8.26366238253994   10.15607218535577   -5.34593035621321
C          -7.61126053064268    8.93226942554110   -5.49756007248706
C          -6.75705391924343    8.88048142592717   -6.69775721194289
O          -5.95370688139623    8.05860611128495   -7.02475387969212
S          -7.00563840462505   10.38007504810046   -7.67680725232968
C          -8.11574581606523   11.09870958403654   -6.47707177093047
O          -8.62630485211109   12.17046949996838   -6.59525016593336
C          -9.79046911425178    7.98680771450601   -0.01292137442986
C         -10.62287035701604    8.68180593904752    0.78325754355618
C         -11.12544455043227    8.15904581809373    2.00528060139272
C         -12.19387940900668    8.67088487144656    2.67698029077281
C         -12.52015689017228    8.41251406765117    4.07779638842800
C         -12.11390465333052    7.34866509675973    4.83364561881196
C         -11.33483431220016    6.27216041537855    4.35662534238004
N         -10.71244367643903    5.36510348430249    4.02936955781970
C         -12.46330788659401    7.16114885269184    6.18861409301572
N         -12.71054745828099    6.95220965071965    7.28931234193626
C         -13.37447727890037    9.50798283003293    4.51389687982672
C         -13.70375523822851   10.30787213634617    3.39486360550109
C         -14.49435156469021   11.43579710568499    3.54261246340316
C         -14.95603321711354   11.75938856806656    4.80949780334779
C         -14.64222226065633   10.97012108277453    5.90731274200831
C         -13.85124172804185    9.83917661894641    5.77294218708873
C         -13.10984551341637    9.70875642040115    2.20963927625576
C         -13.50896041692119    9.92013399003413    0.91833045089193
C         -14.44085337033387   10.91218726493278    0.54121811718509
N         -15.18568276444047   11.70662614040186    0.18074285256209
C         -13.15346505908335    9.10263801906626   -0.17754773924650
N         -12.95447556357766    8.43846257547817   -1.09207345173571
H           2.53168937089610   -5.45569093231462  -10.49241112094657
H           4.91939613911924   -5.97571436174279  -10.24770247542672
H           6.16943285603764   -5.25360829030248   -8.26107023377967
H           5.06246374550071   -3.97942283841841   -6.47196420846034
H          -1.16384953471413   -3.58748692252745   -6.99540575710319
H          -1.35354301064434   -2.24565521906686   -1.27758802547632
H          -3.47488430307235    0.69758369684725   -6.36315987711802
H          -4.57406452364083    1.37337469029159   -3.56985779248369
H          -5.21039302453264    0.57138397035469   -7.43783554600790
H          -5.26965522868125   -0.25412730577407   -9.55996914749881
H          -6.99291173306840    2.64999243805680  -11.04616960870940
H          -7.34798541527508    4.93908798670343   -8.43785314126282
H          -7.39147942927969    6.26117158324124   -6.65510831849025
H          -6.90227247382575    6.14057459566993   -3.63519090195469
H          -9.48298877657602   11.45280743562029   -4.12406430008255
H          -9.47144760550207    6.97796313732259    0.22004784778701
H         -10.92264566878661    9.67672348978820    0.49161305797123
H         -10.57474292977799    7.34008518063894    2.44657443332733
H         -14.73872193063866   12.06052980289197    2.69892965187154
H         -15.56696125167725   12.63924037345035    4.94109470383774
H         -15.01467097594217   11.24083773601037    6.88337778036509
H         -13.61189361453294    9.24123703501961    6.63693693413298
