110
 SCF done       -233.460407910817          0.013380828437
C          -6.27868878934139   -6.14749848448536   -8.12338819862932
C          -5.27207560881112   -5.50266902671031   -8.82508481386738
C          -4.27697280861093   -4.79316376948248   -8.16482583218081
C          -4.25337644547648   -4.71863099770713   -6.78142444503295
C          -5.25043467472069   -5.36480108741887   -6.06697392187247
C          -6.27438372875108   -6.07542587550309   -6.73819530587174
C          -7.20997752561634   -6.60359568134306   -5.75976582224312
C          -8.26373838745853   -7.43381271852343   -5.99891139112784
C          -8.58147075641859   -7.95277947848977   -7.27559329649042
N          -8.88891856238628   -8.40857954845151   -8.28237925108680
C          -9.17668448012903   -7.90741477474420   -5.02736701195780
N          -9.97790703897031   -8.30499641617033   -4.31060684850763
C          -6.80934917136802   -6.03985459705280   -4.46255059865259
C          -5.46230926922685   -5.48450226373788   -4.63821831537965
C          -4.53497439061958   -5.27095528239777   -3.65977643734931
C          -4.69024189485105   -5.65027743541535   -2.31148689095042
N          -4.74103398753150   -5.95804871170226   -1.21009281166654
C          -3.26678028365311   -4.69146637519824   -3.89116517285471
N          -2.23643240407962   -4.20303365512921   -4.00588119647401
C          -7.62656264899028   -5.89864031290148   -3.40215024324617
C          -7.38944180740177   -5.08517938772447   -2.22242795983416
C          -7.02234844016860   -3.73877592462602   -2.27440070094826
C          -6.77554357127049   -2.86273394457873   -3.44431109049534
O          -6.85751390533761   -3.11176636653623   -4.61966132393792
N          -6.39704173401812   -1.62256727220232   -2.92088037746340
C          -6.41182098977062   -1.60868762303156   -1.51821534394810
O          -6.14176788087086   -0.67505757078650   -0.81764902703623
C          -6.83586133041607   -2.97696058777129   -1.11775649609719
C          -7.02301487763146   -3.49305287965826    0.15071228569762
C          -7.40437219733867   -4.82939051010520    0.21329105585586
C          -7.57928223640153   -5.59955021919343   -0.92997162670528
C          -7.87533746753672   -7.02397987518212   -0.67631448565059
O          -7.96902158342974   -7.89390424038981   -1.48828528142446
S          -7.98863458364330   -7.28210341396730    1.09313272531434
C          -7.62716606786922   -5.56443775816270    1.48091341952931
O          -7.57503369509740   -5.13038401472610    2.58866154695582
C          -6.08131231308236   -0.56386861239427   -3.76238299698132
C          -5.51046467347535    0.58372637072023   -3.38246687977805
C          -5.24155039182881    1.62167692037173   -4.33538869351228
O          -4.50810996907485    2.69845421812731   -3.92795965050626
C          -4.42998794812316    3.49439417683856   -5.01552105639539
C          -5.15043766984330    2.85072470982075   -6.06654885828752
N          -5.63150798938278    1.66789680869588   -5.57044210246891
C          -5.28763233057415    3.42042663405806   -7.32053496732655
C          -4.66473644257226    4.65081834404647   -7.46788567561297
C          -3.92433357181082    5.25839048438637   -6.40858650607556
C          -3.78674770171028    4.70839845264336   -5.14911744168799
O          -3.43147388640004    6.42221181638297   -6.87850965177999
C          -3.88767531607050    6.50217325000688   -8.16320969865650
N          -4.60725454994776    5.49063620596610   -8.54305156796712
C          -3.53549996355110    7.65076288020616   -8.94118633661738
C          -4.04851332201953    7.85208708639541  -10.16726215553935
C          -3.70867543851646    8.92864057901834  -11.06391515878678
C          -3.72850419262398    8.69501855151312  -12.44997151409768
C          -4.20054194774414    7.49683756387669  -13.18627106893491
O          -4.69532124007123    6.48971953007498  -12.75642371176089
N          -3.99834571373227    7.78516770260206  -14.54567280937636
C          -3.43345597796423    9.05776271648015  -14.74104169079996
O          -3.16005989927638    9.53015914469202  -15.80715987658135
C          -3.28967051164686    9.63376487245834  -13.38327304943988
C          -2.82197989819818   10.87828555088090  -13.00863141734971
C          -2.88244891833649   11.16032059943330  -11.64914323771062
C          -3.32724098704458   10.24108675309906  -10.69808306706939
C          -3.47580559103957   10.83357652262232   -9.34953763872623
O          -3.97862841983819   10.36710045492873   -8.37371138575298
S          -2.84426867474512   12.52146253371388   -9.36471271575937
C          -2.49600588328670   12.48574116815408  -11.11735926047314
O          -2.04126891511647   13.40253022789152  -11.72902295616736
C          -4.26255849580823    6.95510961312066  -15.61743847825843
C          -4.82954828208910    5.73951347772406  -15.52498911622532
C          -5.07798690125998    4.92692823604570  -16.66476617675616
C          -5.43345752917966    3.61415873311677  -16.61069008297005
C          -6.06424237191596    2.86262058932911  -17.69464418655125
C          -6.02938261423404    3.15822657460438  -19.02794468394107
C          -5.31844850450394    4.23793612214115  -19.59643768867185
N          -4.74394358934719    5.08188337911071  -20.12020673203410
C          -6.67541341628220    2.39525995394140  -20.02490743494323
N          -7.18243375874840    1.82307849039878  -20.87989524700788
C          -6.74321490708930    1.73373349548472  -17.07473538458592
C          -6.40394666897432    1.68928233279097  -15.70233089539781
C          -6.94148078050650    0.71747942107100  -14.87423070073167
C          -7.81546621638791   -0.20925813277216  -15.42193465110984
C          -8.14083118447756   -0.17418362897885  -16.77084999239445
C          -7.60985278147262    0.79337394088811  -17.61015492815664
C          -5.45558531312537    2.75712971601165  -15.42706239984385
C          -4.59183466132804    2.81460053201600  -14.36795505193742
C          -4.63554907686202    1.92191250465141  -13.27489969933847
N          -4.64484854457702    1.23276052622861  -12.35750589216442
C          -3.47347655248730    3.67526738000681  -14.29635392124208
N          -2.51700481457976    4.30069824662753  -14.21631454275762
H          -7.04902670040830   -6.68341518449884   -8.65302305394990
H          -5.26732035234346   -5.54871796880922   -9.90305869849468
H          -3.51161414966918   -4.29033529234848   -8.73512480524755
H          -3.48130384493704   -4.15811125800053   -6.28009208942422
H          -8.58848294378370   -6.39486146562020   -3.41634883731165
H          -6.87091679978804   -2.90511660137301    1.04178878027433
H          -6.32803859610894   -0.75007325530004   -4.79930349544621
H          -5.22848421942059    0.78762663038443   -2.36185665678706
H          -5.83229862196284    2.94835261203395   -8.11815607616071
H          -3.23711020207721    5.17911396963261   -4.35302781995916
H          -2.82842247392053    8.31813910171268   -8.47429177230765
H          -4.69916991628069    7.08663229757130  -10.56823767788402
H          -2.46048855394615   11.60385538373172  -13.71912439280075
H          -3.93020080302168    7.37050963005451  -16.56122902252202
H          -5.13381464973373    5.37050557012795  -14.55809851471138
H          -5.05523915090018    5.42213393290191  -17.62531840068529
H          -6.70217183584419    0.68536332767231  -13.82378614899760
H          -8.24838668972934   -0.96748765078602  -14.78771264715203
H          -8.82078593699602   -0.90805511231584  -17.17532867764463
H          -7.87799111938981    0.80995368905904  -18.65365682347686
