128
 SCF done       -230.790696820080          0.000869016004
C          -3.75176242486967   -5.68668094476242   10.34890411109079
C          -2.49298445666389   -6.26891352141895   10.39015520815071
C          -1.68138147714757   -6.30475010002899    9.26519071204083
C          -2.10373733354195   -5.75483328309468    8.06399730330566
C          -3.36109644981221   -5.17817258255738    8.00895918163872
C          -4.19137197373786   -5.14279937614868    9.15313101969925
C          -5.43958138478208   -4.47263786680854    8.80805038159148
C          -6.41472595113687   -4.07021051856261    9.68081237501051
C          -6.37947957789137   -4.30985032770730   11.06997597697166
N          -6.40726942214729   -4.47803979617277   12.20520630951766
C          -7.53445141155871   -3.29266567696199    9.31670201586092
N          -8.43622185102281   -2.62287197058135    9.07883967280122
C          -5.41942893590210   -4.27613443502472    7.36497182008489
C          -4.04899377950451   -4.49735272685714    6.92528546680604
C          -3.45725191784051   -3.92037567777109    5.83052764538324
C          -4.11309479576998   -2.96699392562156    5.02297238062762
N          -4.60212989119529   -2.14399664050419    4.38900805256423
C          -2.13732470895151   -4.16351191062352    5.41422033371142
N          -1.08862224666126   -4.35534019164774    4.98478016219994
C          -6.52687107888015   -4.05940098596947    6.59114415637568
C          -6.63045463022142   -4.24810802829702    5.19323914446047
S          -5.65928505443940   -5.41603420420738    4.33478439621754
C          -6.31287324434635   -4.93243448181069    2.79885526098805
C          -7.25103145759754   -3.92790529388534    2.95995184455407
C          -7.46389114429494   -3.58356068081973    4.30410078395646
C          -8.49676119147973   -2.57214922235327    4.71175947851292
C          -9.77864537903119   -3.34124180325905    5.03558324947449
F          -9.60562215202795   -4.25465233251733    6.00333076422713
F         -10.76673986542716   -2.53519201631721    5.44351010505433
F         -10.25325000293399   -4.01292969502432    3.97281766414002
C          -8.80759844606595   -1.52738703186013    3.61549792296006
C          -7.86819693925740   -1.64003262017326    2.42058598322654
C          -7.85172332310926   -3.07485063327341    1.89026680731106
C          -5.79657378718274   -5.54425834386236    1.60399182954371
C          -4.52258005818436   -6.06941965252054    1.61306832889205
C          -3.95273845039875   -6.58154129453404    0.43491012447434
C          -2.70351282431567   -7.12685159000637    0.16886977369454
C          -1.65055587448272   -7.65614781341518    1.08622699080597
C          -1.33090863314829   -6.76758593044506    2.29961991392741
N          -1.30113021289929   -5.36596368644814    1.92825073110640
C          -2.07952245552253   -9.05319300752002    1.58648778709030
N          -2.31499116597758   -9.97360195013474    0.47845614253352
C          -2.65872967632963   -7.37106198253397   -1.25417980456871
C          -1.64980226394354   -7.77711852189040   -2.04798495696344
C          -1.89060111232143   -8.11675898357815   -3.47754368248367
C          -3.23252965704573   -7.71980467067083   -4.00196186630453
C          -4.19516452561895   -7.20509880444331   -3.21493770751707
C          -3.96391632461508   -7.02072455302926   -1.82942906215234
C          -4.73354856030947   -6.52256942451133   -0.79889410181323
C          -6.06688106282006   -6.05201194978098   -0.75873687247760
C          -6.58623869051168   -5.59349572568140    0.40703761101656
C          -1.76147085023768   -9.62246658221401   -3.44009937384818
C          -0.78959867893477  -10.31071744181927   -4.02671007191059
C          -0.67269633547992  -11.74771597490057   -3.85396348041864
S          -0.79772581137963  -12.77308262127293   -5.24007272062794
C          -0.74613360056791  -14.20421958584337   -4.24032921966250
C          -0.58359755165771  -13.86792076014723   -2.90955416345048
C          -0.54781689416911  -12.47359450730099   -2.69047831037042
C          -0.32639288418989  -11.87680039423309   -1.32270055809311
C           0.99653581149965  -11.11528889849865   -1.28592159393325
F           2.02417450373828  -11.85224279486108   -1.73756830320229
F           1.00381007239332   -9.98589888869107   -2.01308050086375
F           1.31924170915097  -10.73820730909514   -0.03930304508753
C          -0.25433276569841  -12.95098285405082   -0.21973562189326
C          -1.13448822695781  -14.15084505485266   -0.53839251194288
C          -0.59915074147930  -14.84778570304813   -1.78597137566776
C          -0.79167439969638  -15.51486999839429   -4.78416599262240
C          -1.41019472516152  -15.90623602546161   -5.93311523794422
C          -1.09953268037034  -17.12140993979046   -6.68165595397615
C          -0.45640864786675  -18.23563445925750   -6.21689645941272
C          -0.02921314658409  -18.42088105459284   -4.88493506726232
N           0.32660791235307  -18.63188295442848   -3.81380523255728
C          -0.18458510118568  -19.37683679662387   -7.00186312623643
N           0.06651002475870  -20.33217235698420   -7.58573059433164
C          -1.62128620368588  -16.92473500711015   -8.02750417103507
C          -2.37993716863107  -15.73165563878188   -8.05598554045114
C          -2.98233972260426  -15.30353524383609   -9.22725609822142
C          -2.82312262685517  -16.07135336358284  -10.37082751552754
C          -2.08500036794859  -17.24665692218253  -10.34417951646982
C          -1.47858590905098  -17.68635228301752   -9.17695694402244
C          -2.39565956442318  -15.16664591933497   -6.71750076315518
C          -3.34791839424716  -14.32123630006773   -6.21643421168579
C          -4.33876203142666  -13.69860219696873   -7.00320431975661
N          -5.15641654480335  -13.15374758083337   -7.59597496429693
C          -3.50321574545863  -14.04526244887443   -4.84168767303173
N          -3.69400327130543  -13.83186455772187   -3.72978506377529
H          -4.36831782121720   -5.66750806974023   11.23261814204804
H          -2.14206706082713   -6.70072193338368   11.31496883997103
H          -0.70739818785119   -6.76621706215884    9.32379300778556
H          -1.46867123929998   -5.78832615701944    7.19294546716011
H          -7.44055828979345   -3.77541382304868    7.09434668002916
H          -8.19434223165482   -2.07966977416088    5.63980338759294
H          -8.74053936139938   -0.52836815392156    4.04507905519096
H          -9.83390843737280   -1.66708993509526    3.26768275638929
H          -6.85536357113079   -1.36152601278321    2.71736542776328
H          -8.20012582186926   -0.95561497660506    1.63963045284749
H          -7.25153642765596   -3.13162954610790    0.98233466056400
H          -8.87102432256767   -3.39730194124737    1.65991480527141
H          -3.93224821417727   -6.02074514261327    2.51311251196345
H          -0.73460756288362   -7.78579211317493    0.50185880923081
H          -0.38358629917425   -7.12777717013304    2.73740565953343
H          -2.10084955005272   -6.89157839584285    3.06670246445064
H          -0.55990734324551   -5.19723318067164    1.25583995939890
H          -1.10769754115981   -4.79883476827920    2.74850210202754
H          -2.96910051703061   -8.92829860207373    2.22422385024852
H          -1.27510035003829   -9.47340684661183    2.19666985523253
H          -3.06696381779080   -9.60933058002484   -0.10081915523233
H          -2.63031173474197  -10.86420846289289    0.85206332771229
H          -0.65489920974250   -7.96911748988217   -1.67404732561707
H          -1.09477019204966   -7.71532454755073   -4.11391541631041
H          -3.39744088408388   -7.88977540833405   -5.05464354665139
H          -5.15323949260201   -6.92531235617336   -3.62815108035843
H          -6.66374421282770   -6.07224522694828   -1.65860970273267
H          -7.61659034318077   -5.28186996498807    0.45816617820620
H          -2.50511402606381  -10.12760864076258   -2.83951453310663
H          -0.07463471490907   -9.83288411705129   -4.68301185011273
H          -1.10753869876337  -11.14553489296849   -1.07800845191987
H          -0.54481372591598  -12.49585310837751    0.72708791442993
H           0.77726132070979  -13.29845562817046   -0.11980236607558
H          -2.16141997766496  -13.82875548567363   -0.71816146957781
H          -1.13078014214014  -14.84294289571310    0.30354475133543
H          -1.22107053948355  -15.70541640907217   -2.04315836742748
H           0.41603876578625  -15.21329730622297   -1.60155467258948
H          -0.20717749406324  -16.24790567592260   -4.24358061308410
H          -3.55139259911854  -14.38841864077527   -9.25858411768552
H          -3.27946502563274  -15.74791246459828  -11.29376266784063
H          -1.97675678212750  -17.82904636631377  -11.24627105911025
H          -0.90567652900387  -18.59905192097910   -9.17653724479833
