89
 SCF done       -180.769290353413          0.000737462534
C           1.32613923854969   -0.92493017429399    0.66264379788722
C           1.63056092955216   -0.84871385339726    2.01336162276116
C           0.72208230856918   -1.26250210228000    2.97821522088754
C          -0.52206585689753   -1.75897822234189    2.62029741008292
C          -0.83820596847598   -1.84022451675446    1.27375832200617
C           0.08904809515572   -1.42669835100164    0.28799585387378
C          -0.49177911335039   -1.63923336445399   -1.03032948508322
C           0.03230092968489   -1.23674807883103   -2.22594099971730
C           1.25150936732513   -0.53492662748130   -2.35587733798412
N           2.23158937387281    0.03599081690821   -2.52762235966545
C          -0.57752949443061   -1.42055719343749   -3.48738155264265
N          -1.01052348643792   -1.53053474707044   -4.54427546140313
C          -1.74489432078159   -2.36267619897956   -0.81864593851317
C          -2.05334722671050   -2.27593264710779    0.60686181075669
C          -3.30152047546946   -2.35600914498900    1.16142133755584
C          -4.49437977957988   -2.44874186763336    0.41130956421515
N          -5.49152919015154   -2.43775980540700   -0.15648488513916
C          -3.55003300797099   -2.22865346914612    2.54543018231252
N          -3.79223519484574   -2.14589763473135    3.66326516073329
C          -2.40962991567884   -3.08894112905411   -1.75672892744939
C          -3.40470870019456   -4.06948429731006   -1.49477200510910
C          -3.48162568466118   -4.98797999992405   -0.34515090305475
N          -4.49854121729249   -5.79266821095557   -0.37687275378521
C          -5.18721488497448   -5.48018655443291   -1.51309245327744
C          -4.48266318144412   -4.43391874332867   -2.26465725347461
C          -5.25060067140002   -4.04173140512498   -3.42216475924734
S          -4.91308291212819   -2.79311162214294   -4.43467015248466
C          -6.39558226526028   -4.90642301198479   -3.38940486001961
C          -6.35454700228892   -5.75181445837970   -2.17820171057535
N          -7.50138059568207   -6.47936155577523   -2.06210044272009
C          -8.24177715730713   -6.13914623734086   -3.07324179008093
C          -7.61683598960775   -5.16041885905897   -3.97282838728912
C          -8.17115407602991   -4.67810168265006   -5.18272769759531
S          -9.87564834239217   -4.46676683586500   -5.40931227439689
C          -9.63624211445927   -3.88479872635719   -7.02856362037081
C          -8.28692473512275   -3.83940819911540   -7.36414186881777
C          -7.45818735612292   -4.31140679989751   -6.32172454763267
O          -6.12112345406870   -4.45990435231872   -6.34311756816478
S          -5.33631645133267   -4.54086231583752   -7.81075692162180
C          -5.95362961683732   -2.97234998521100   -8.46054311131514
S          -7.73219103850299   -3.10241754040083   -8.84708818763723
C         -10.75541672606803   -3.56638761431290   -7.83671157556603
C         -11.97641032309907   -2.90335121676710   -7.36924278377066
N         -12.89390725811217   -2.77407695988239   -8.27871974239888
C         -12.40009803744104   -3.37453483546457   -9.39543082895766
C         -11.01092702731582   -3.83438951859136   -9.16546395628553
C         -10.57709715493356   -4.64173966945181  -10.26584411983654
S          -9.09736707070623   -5.30699961152945  -10.55771150827992
C         -11.75834922579032   -4.78158046712451  -11.08297252442663
C         -12.83152857618203   -3.89453230193745  -10.58574644468913
N         -13.95553149306767   -4.04595084299073  -11.33469072244615
C         -13.69300917724319   -4.98186159523693  -12.19399156328016
C         -12.34581895163301   -5.55781498897712  -12.05249140691891
C         -11.86231465719273   -6.67629878855370  -12.79547318739455
C         -11.01261919136444   -7.63721090803320  -12.35274166661517
C         -10.26168814937310   -8.55269509490111  -13.21546607145085
C         -10.59710927762423   -8.94689173440561  -14.47875426896171
C         -11.78408064513336   -8.57036249429312  -15.14558244338409
N         -12.73569811887837   -8.30522524280535  -15.72921863232998
C          -9.82111612820730   -9.82788802206455  -15.26408203687873
N          -9.23626866315799  -10.53955781408449  -15.94750267822341
C          -9.09212006517614   -8.96392326331808  -12.45427407161771
C          -9.21529212473106   -8.49159443915628  -11.12619968705648
C          -8.22368654339490   -8.74086303294486  -10.19141700823298
C          -7.10675318816927   -9.45809008573927  -10.58956057714989
C          -6.98527980695948   -9.92704967272584  -11.89126103931155
C          -7.97278488141060   -9.68869991408827  -12.83463289257529
C         -10.49102712347850   -7.81085532020450  -10.99500044172294
C         -11.17707905138186   -7.58764282545992   -9.83182405728033
C         -10.59271922295168   -7.62585195187727   -8.54994086970531
N         -10.15528414027414   -7.55066668632808   -7.49084788114636
C         -12.54384075018831   -7.24327542906135   -9.79082542783434
N         -13.66720582826414   -7.02383289222284   -9.70568277821093
H           2.04584962097286   -0.60400751614876   -0.07235556631937
H           2.59217031049806   -0.46394297886363    2.31623363561796
H           0.98571557943367   -1.19895809837565    4.02264652442599
H          -1.21755488888944   -2.08354812893642    3.37727467120371
H          -2.14992171147695   -2.96133229404111   -2.80001524608726
H          -2.75050239667329   -5.05948408209100    0.44188518454638
H          -9.21342506374224   -6.57532614011556   -3.22752390205513
H          -5.78006892719551   -2.18906360746241   -7.72458674260029
H          -5.44217551502633   -2.76172318314540   -9.39467710610639
H         -12.11935581929042   -2.51989529820761   -6.37400286717876
H         -14.42731718308295   -5.30635614271793  -12.90940475296835
H         -12.20130647512203   -6.71808721680893  -13.82311435864267
H          -8.30764045671834   -8.37214499615479   -9.18190612503522
H          -6.31992768194807   -9.65245875246048   -9.87687041807519
H          -6.10651665608165  -10.48465248890228  -12.17696922013261
H          -7.86018392156751  -10.05637413614416  -13.84149888319563
