92
 SCF done       -177.792664760868          0.000700290731
C           3.84889306924387   -7.91424558629160   -6.95381815201719
C           4.89409299765458   -8.38389689379713   -6.17289677623234
C           4.83715664570122   -8.32528107956887   -4.78708782479595
C           3.73491710651253   -7.78635553529743   -4.14150569277722
C           2.68445586297113   -7.31270001740028   -4.91104865360928
C           2.73505860682673   -7.38070719652327   -6.32325379420126
C           1.49554154720602   -6.84636413636506   -6.87123368994426
C           1.20338885735776   -6.67303436356073   -8.19504602676003
C           2.09673266804151   -6.97650959552708   -9.24685492931267
N           2.77037362488048   -7.20906102100205  -10.14576879300084
C          -0.00959053418561   -6.16356497444448   -8.71104823250086
N          -0.96657920858000   -5.77164358070339   -9.20829328736200
C           0.62039626810488   -6.57558943003539   -5.73169239693645
C           1.43657021900083   -6.67652963359205   -4.52586086560505
C           1.16857809938209   -6.07260730941583   -3.32739773062228
C           0.08569991344075   -5.19279295241255   -3.10898343925427
N          -0.72447342979954   -4.40680646877093   -2.90176707464508
C           2.01110298778846   -6.16518043757287   -2.19870287368583
N           2.65551536948530   -6.22526940120413   -1.25168113765961
C          -0.72663826649806   -6.38731252200627   -5.79574041415280
C          -1.65260195962583   -6.53772446359436   -4.73098604426643
C          -1.56502984375104   -7.46858095603741   -3.59009930524454
N          -2.62658007839940   -7.49701701672941   -2.84638636779927
C          -3.49017395532022   -6.59044018202798   -3.39231415138394
C          -2.90222312120647   -5.98156247795575   -4.58949007068650
C          -3.82338267926265   -5.03590133013531   -5.17377966792617
S          -3.55284766030652   -4.08473395212517   -6.49439440850843
C          -4.99080142444092   -5.12962711804658   -4.34612408781128
C          -4.75630664482109   -6.08250876725515   -3.25202237855021
N          -5.87335090343188   -6.20401533076025   -2.47006131221895
C          -6.76385414297922   -5.43115155213180   -3.00808019919172
C          -6.30151447712398   -4.71387630661466   -4.20681303649044
C          -7.07302755055016   -3.84547756519650   -5.00358081133345
N          -6.54005704184235   -3.15619541839580   -6.05082625377034
C          -7.51450006039851   -2.45253471783569   -6.67609258038920
C          -8.72549449331951   -2.69206263301439   -6.00043756922932
C          -8.44764313527291   -3.54684873148005   -4.95356108757999
C          -7.27854429847424   -1.63472538022522   -7.76961069002943
C          -7.08303085912021   -0.90784434208399   -8.72537983525633
C          -6.85497058277558   -0.08479367255711   -9.81659533845029
C          -5.70850411820079    0.62594329878143   -9.96863741033417
C          -5.43558596492473    1.47018028257549  -11.07295614838800
C          -6.13593971853185    1.51085847158139  -12.36913402927285
N          -5.65179573920037    2.36554027109356  -13.21620819206125
C          -4.60855729812826    2.97316666201791  -12.57340015433851
C          -4.44539694995038    2.41731534860137  -11.21990707645893
C          -3.39243782220353    3.10803264455286  -10.53000157368422
S          -2.97322391410666    2.97053922029359   -8.94080544327363
C          -2.87145670889275    4.03513366043805  -11.50379635472847
C          -3.66904458405584    3.95182361438280  -12.74633544479266
N          -3.25695507826549    4.88964429146521  -13.64454842607857
C          -2.30276560234661    5.54391972973382  -13.05976462514791
C          -1.98226236992871    5.06650691403231  -11.70279652578700
C          -1.03950270520396    5.69641818181233  -10.84696844953382
C          -0.35350700917922    5.14326882213145   -9.81206285087980
C           0.27048178807157    5.90772682926624   -8.72910137949839
C           0.62993333802212    7.22575844301943   -8.75341190124909
C           0.51071272390306    8.08250988481668   -9.86978350096451
N           0.45559440501718    8.82763756824469  -10.74112986931197
C           1.22529028598529    7.90141563448973   -7.66483884747414
N           1.70853860924749    8.50923235476152   -6.82046149032563
C           0.44188494375943    4.98447906198948   -7.61840928504243
C           0.13863493469919    3.67552754687181   -8.05818810681848
C           0.20032713610741    2.60395046555659   -7.18368548598341
C           0.56946533883028    2.84554135733555   -5.86918575320999
C           0.87738869183335    4.12856227233085   -5.43680968596209
C           0.81762585517198    5.20951648454468   -6.30248885038542
C          -0.20339166791822    3.72925275480244   -9.47123892259362
C          -0.10946520853374    2.69365239026514  -10.36060210765310
C           0.15335630526541    1.36136188556801   -9.97704206081508
N           0.35488488086849    0.26269016015987   -9.71562386959711
C          -0.21563415926443    2.83822773419073  -11.75822765458205
N          -0.25695517927604    2.90791957516868  -12.90329502187121
H           3.91018541227455   -7.97272154983827   -8.02790194249717
H           5.76348407010209   -8.80501074468668   -6.65392847026275
H           5.66042440968156   -8.70459410402367   -4.20159041084311
H           3.69798567943309   -7.75124613648882   -3.06470054666896
H          -1.17441483310067   -6.17038357410062   -6.75761844356953
H          -0.74118293122996   -8.13209028559682   -3.39088209528458
H          -7.74510777174216   -5.34231328942486   -2.57636163973404
H          -5.56060125597847   -3.22575575200450   -6.34013948020413
H          -9.67368751754384   -2.26523207640122   -6.26025443072920
H          -9.14565836682802   -3.92963768569216   -4.23612305490169
H          -7.65765900685679   -0.01135153558996  -10.53920524225233
H          -4.95299494929301    0.58484922138949   -9.19465253503578
H          -6.96867497288303    0.88882380076758  -12.64808274576039
H          -1.79383805760840    6.35072938661396  -13.55730461931935
H          -0.92986264677070    6.76013451443986  -11.01845772257512
H          -0.05213066415301    1.60703098133433   -7.50614480626891
H           0.61266848358179    2.02274035180976   -5.17211644417709
H           1.16172614034806    4.29137948961799   -4.40844129319507
H           1.04952384778197    6.20048922064565   -5.94794059741127
