130
 SCF done       -249.491324693929          0.000687844985
C           2.14321024528790   -2.75745357113507    3.03492831880108
C           3.20505702892724   -2.04437041661809    3.56910838729185
C           3.69778504872967   -0.90989816308745    2.93718745756422
C           3.13596138827956   -0.45024208954391    1.75667504007365
C           2.06993326073785   -1.15104137223303    1.21463888446005
C           1.57371725294433   -2.31415650269047    1.85033489174670
C           0.49422446045136   -2.87055031852702    1.05243530956524
C          -0.31139321607895   -3.91895615774577    1.38368200157849
C          -0.22967553619236   -4.61737549784340    2.61028725944587
N          -0.22137645929470   -5.21929892211157    3.58664627486162
C          -1.34767376888157   -4.44966026408922    0.58048749670314
N          -2.19273708176441   -4.95538452588134   -0.00771097857943
C           0.46041238982458   -2.09331389469455   -0.19400299099104
C           1.27661887421731   -0.89494270913545    0.02840319914324
C           1.18267153440080    0.28872496639585   -0.64515233171337
C           0.19657908184843    0.58490216277367   -1.60771679947835
N          -0.61626532697655    0.90266280224096   -2.35362989950006
C           2.00955127993384    1.40602918807253   -0.39064096580099
N           2.65977293582960    2.33902626130521   -0.24370684858935
C          -0.05298692452489   -2.53768402854842   -1.35604193873451
C           0.12278267779618   -1.96994073061720   -2.68224366717836
C          -0.99284416159281   -1.72336392202486   -3.47932003818152
C          -2.41765584379228   -1.82737434018259   -3.11152169786351
O          -2.91114977420756   -2.18553460010703   -2.07393135322049
N          -3.13121407208312   -1.39055043417569   -4.23550367331139
C          -2.28814972199900   -1.00325650115650   -5.28291461645390
O          -2.63263836165695   -0.60638195862944   -6.36417488304401
C          -0.90883545455038   -1.19917385908125   -4.77025380346951
C           0.31024523960768   -0.91166560147037   -5.35465813598425
C           1.43691089724380   -1.17128983298923   -4.58299159639628
C           1.36389177011753   -1.68456760773338   -3.28053644913862
C           2.67322936159245   -1.90995335798105   -2.65313719868172
O           2.91109107901563   -2.35936248237303   -1.56458852232303
S           3.96693302588627   -1.39210410821715   -3.77943739750998
C           2.80293091282995   -0.91948434552513   -5.07003600483831
O           3.13719258707533   -0.48217417641047   -6.12849787403611
C          -4.52112603946351   -1.34733633963508   -4.20251701603310
C          -5.30532859988470   -0.86930333289975   -5.17532021881778
C          -6.74883452011499   -0.79464575263495   -5.12208643853718
C          -7.40221330509319   -0.05630216289634   -6.09097163442933
C          -8.79753067936289    0.09049361288086   -6.04655526020363
C          -9.66910763356733    0.81940265280057   -6.86176442125757
C          -9.29039950129265    1.59248605799125   -8.07402695970017
C         -10.21878716780666    1.31199559736727   -9.28490025653421
N         -11.38356753531725    2.17901302113614   -9.32700246185824
C          -9.20797793596956    3.10197767240048   -7.76144139957869
N          -8.12168180073968    3.33148897680421   -6.82980899391809
C         -10.98829484539467    0.66007381548822   -6.30007198960474
C         -12.16786169882061    1.21105547727890   -6.65076282105361
C         -13.41894930842633    0.87481847423163   -5.91679595600868
C         -13.25539271671362   -0.09706883580800   -4.79723552564081
C         -12.05496139555628   -0.59067412396380   -4.42870019421985
C         -10.88972676891520   -0.23094422025535   -5.14217888787307
C          -9.54636042843916   -0.55802951650285   -4.98755016392512
C          -8.86392965772585   -1.33800179517401   -4.03425618861884
C          -7.50690190537673   -1.44623194488003   -4.10328655883166
C         -14.42608620307282    0.45219196408841   -6.95882090570752
C         -14.83472877323537   -0.79906186587270   -7.12777932486441
C         -15.86467046360066   -1.18755716013662   -8.08187365942398
C         -16.93758829297207   -1.96282517783430   -7.63815491791561
C         -17.18238125889986   -2.50864721307080   -6.29835921394903
O         -16.50868466124092   -2.46523261955055   -5.29803303529867
N         -18.44087933105058   -3.13355255342320   -6.36774918870347
C         -19.01742955904164   -3.03796972815266   -7.64636543600028
O         -20.08062903069872   -3.49498206025230   -7.96822288711666
C         -18.03083753406879   -2.29217884794692   -8.45412964612437
C         -18.08731381346936   -1.89724099571244   -9.77650172214881
C         -16.99931186757043   -1.17313621240526  -10.25091213748568
C         -15.90942638585587   -0.81789351550475   -9.43774287515920
C         -14.83964416305712   -0.11950028506537  -10.15886048419575
O         -13.76639897737456    0.24375857927152   -9.75891694579255
S         -15.33621224360999    0.12148337842573  -11.86869295992764
C         -16.90854520243655   -0.72425578536819  -11.64614194748423
O         -17.70536825889168   -0.87180026740049  -12.52345058513149
C         -19.01592848929858   -3.62277955417705   -5.21425031551478
C         -20.31446613785371   -3.90715585800467   -5.03198455000489
C         -20.86875342774509   -4.32053637788174   -3.78089039225131
C         -20.43203241909013   -4.05489987818928   -2.52099862645222
C         -20.90950742677506   -4.78574070467078   -1.34189497883609
C         -22.10060000011725   -5.43905786738334   -1.20160283565776
C         -23.12955766307067   -5.48350437117994   -2.16883485355887
N         -24.01616702634526   -5.54930057773361   -2.89456328400770
C         -22.49312583574836   -6.11601078806074   -0.02555797833109
N         -22.86991662785293   -6.68309490578982    0.89785294427141
C         -19.87950616994933   -4.65360880614333   -0.32296009476339
C         -18.92323942743353   -3.71066203104504   -0.76300126567125
C         -17.81576429816095   -3.41405576373583    0.01572762396941
C         -17.67287725348800   -4.05736849635844    1.23519381415851
C         -18.61741686971738   -4.97561066580684    1.67370603400604
C         -19.72725044859631   -5.28426083979497    0.90241856679416
C         -19.34286778008146   -3.18892567962685   -2.05511376775685
C         -18.93928466837956   -1.99235081338339   -2.57706146067590
C         -17.92843272736604   -1.18256876832178   -2.01423439790306
N         -17.10521629499285   -0.48280469843710   -1.62800653268700
C         -19.48163996089712   -1.36971131306018   -3.72116582210884
N         -19.87378117307608   -0.77810936205232   -4.62320218948292
H           1.78106987580086   -3.64186254774551    3.53300074683392
H           3.65919989187909   -2.38266640837751    4.48786892229666
H           4.53263635149134   -0.37887056724010    3.36810519075026
H           3.53461595984514    0.42399705558243    1.26842029898557
H          -0.66106117577946   -3.43344427736170   -1.34338922506723
H           0.39568854333842   -0.49975502738913   -6.34743170992753
H          -4.89851021856355   -1.73152730486408   -3.26441211470549
H          -4.85070831417289   -0.46990154936546   -6.06969051089737
H          -6.83382960498456    0.44012027897794   -6.86295785151661
H          -8.28001641174883    1.28246869363039   -8.35533489271800
H         -10.56822543929566    0.27962525993631   -9.21549582201944
H          -9.60728844179289    1.39958949829301  -10.19438811145795
H         -12.13781705110779    1.72852281706543   -9.83203209482643
H         -11.17035591396258    3.06097198594674   -9.77718696773993
H         -10.18923578979775    3.44201544655240   -7.39809028268092
H          -8.97051441746327    3.64076375348095   -8.68248626973850
H          -8.32352305675130    2.90633868146216   -5.93137506816431
H          -7.96456397796009    4.32197375413653   -6.68885170832699
H         -12.23771856090292    1.87030589533525   -7.50692330794686
H         -13.80588424037009    1.81253139779194   -5.48336627028419
H         -14.15762658572789   -0.37129702483265   -4.27167174424101
H         -11.97226682380916   -1.27034734408259   -3.59332826605516
H          -9.41843574837051   -1.83746305982744   -3.25374840716200
H          -6.98729848899681   -2.04777207791892   -3.37488431093121
H         -14.79140955211485    1.24605168523354   -7.59426918182327
H         -14.50277810629534   -1.58027141752714   -6.45812485961370
H         -18.92134125597263   -2.13561397727719  -10.41700622569059
H         -18.28284321739707   -3.73966821942351   -4.42422903078197
H         -20.99285451423531   -3.87544906472593   -5.87190971815486
H         -21.74420900425308   -4.95053380984831   -3.87084554545756
H         -17.06961511949523   -2.71207517981566   -0.31910730847188
H         -16.81232225213688   -3.84176526407477    1.84969957067069
H         -18.48525350454197   -5.46312012178565    2.62733403379267
H         -20.44519887371898   -6.00731989406353    1.25271876782959
