107
 SCF done       -211.020377212307          0.000765856395
C          -9.56320730098589   -0.42774369692133   -5.05035118319442
C          -9.36829040865966    0.94190655996819   -4.95395077322824
C          -8.45588414398136    1.47498107737286   -4.05382540107167
C          -7.70577720204172    0.65197773522295   -3.22783420986715
C          -7.89027772618581   -0.71854969207963   -3.31615486206557
C          -8.82544836402381   -1.26348580765511   -4.22610513119525
C          -8.82584590913517   -2.71354529571474   -4.09253862020105
C          -9.48406917756727   -3.59539856150231   -4.90310915928785
C         -10.28111411232163   -3.21161000934265   -6.00474521295430
N         -10.93894079657207   -2.96953223593534   -6.91272042196044
C          -9.43136428862590   -5.00290177597611   -4.79991427741924
N          -9.42851215533424   -6.15064598583923   -4.78495440663176
C          -7.98156136652467   -3.02853597949159   -2.93865678942955
C          -7.24193334710999   -1.81175973079623   -2.61055732845276
C          -6.03718398434753   -1.73991162050340   -1.96545251984084
C          -5.29428176616595   -2.84926881260265   -1.51337526936643
N          -4.60495088637485   -3.69663183284589   -1.16024841511936
C          -5.34160758852372   -0.53345741229591   -1.73410036713357
N          -4.73946073696985    0.41349672876297   -1.49592459111720
C          -8.00397916038596   -4.21832370685195   -2.27720403785332
C          -7.48421791289027   -4.54980304515452   -0.99429677772901
S          -6.83395875238518   -6.15151257591182   -0.80959116104388
C          -6.41030313405709   -5.84032158636451    0.83789446197856
C          -6.82531240916597   -4.57073805552664    1.23720135006720
C          -7.43886179793876   -3.84365315976981    0.20308066584340
C          -8.09964556177035   -2.51776453149531    0.42657374623256
C          -7.25417772652969   -1.63560814152446    1.32194851769816
S          -7.33621576212602   -2.44885020359221    2.94764174902397
O          -6.52237828191007   -1.75125496243215    3.89770032958215
O          -8.72167917328501   -2.65332611624577    3.26397627422225
C          -6.55916816223885   -4.06426363198776    2.61290136444469
C          -5.72053005180557   -6.79413409975856    1.63069322889597
C          -5.27917408959189   -7.98473231231630    1.16001529823549
C          -4.59456125336205   -8.97960400189882    1.90764097334703
S          -3.96010854109742  -10.35926291208341    1.06988088503724
C          -3.34530201083459  -11.07283529687606    2.53029456004122
C          -3.60210690560259  -10.24734864954593    3.61225756654659
C          -4.31781117056109   -9.07186908298327    3.27097785356950
C          -4.75273728493921   -8.12139080887543    4.21287846491452
N          -5.13718062703836   -7.35250741050916    4.97217147361870
C          -3.10584278843252  -10.50839766317582    4.99893986196254
F          -1.86609561493690  -11.03595992138225    5.00820330592436
F          -3.03974364005684   -9.40903304878343    5.75036202503236
F          -3.88072581442484  -11.38438256230855    5.67616911383722
C          -2.69549253097944  -12.33981669168823    2.43168931506907
C          -2.61511598069033  -13.27449914298165    3.40432844820095
C          -1.93390630215474  -14.51203492987637    3.25545949186513
S          -1.00631020567175  -14.86065393566171    1.83448011352084
C          -0.55033546108661  -16.41694119625253    2.45558759886258
C          -1.13510683210966  -16.65890994838658    3.69953060025956
C          -1.89822276805125  -15.57061181071040    4.16010980240583
C          -2.65811550803607  -15.51105881710147    5.45309285319344
C          -2.21651423240476  -16.55964509054356    6.45066594647127
S          -2.38137591025679  -18.15218924030283    5.59283835145659
O          -2.05066077960996  -19.22922985002045    6.47986604272946
O          -3.64859262930956  -18.17959052794521    4.92372025256123
C          -1.03623059738599  -17.97639144233301    4.37913015822487
C           0.31358122149675  -17.20627531099701    1.65467673635216
C           1.10305610806428  -18.23350871217445    2.05993830727981
C           1.98773953250630  -18.94058416440738    1.20042640931784
C           1.84237333686770  -19.18724183247691   -0.13404804703486
C           2.93947828265978  -19.52624764836664   -1.03933303200648
C           4.18369736866264  -19.98309647854388   -0.70228137302558
C           4.62911640692366  -20.26263627819265    0.60791154618052
N           5.06076991579917  -20.51132688739504    1.64219108157706
C           5.19729201551648  -20.28038291557021   -1.63974345970496
N           6.06349225215809  -20.54432242576265   -2.34435550629695
C           2.45805850737948  -19.27563153798065   -2.39126472615622
C           1.07907467835254  -18.96871829082014   -2.33740845154238
C           0.37623313147742  -18.66627132203332   -3.49243424694610
C           1.05523254373827  -18.67530210374271   -4.70127328551459
C           2.40692724942713  -18.98563481823992   -4.75793428673425
C           3.12148912915721  -19.28809088259757   -3.60853152734758
C           0.64022588229035  -19.06321367519159   -0.95454397066240
C          -0.64948395828493  -19.26827804041993   -0.54201192174574
C          -1.76643340247800  -19.22351328435684   -1.40243196527214
N          -2.70774321191771  -19.17726996558186   -2.05694209063179
C          -1.00120240153262  -19.61762372952398    0.77595674907118
N          -1.32535650908255  -19.94302246136659    1.82824297605948
H         -10.28081273097283   -0.82236944265368   -5.75033048022542
H          -9.94004490609285    1.60166979510031   -5.58808292253634
H          -8.32769348917926    2.54455248543377   -3.99229516615944
H          -7.00634703082658    1.07788538767406   -2.52704974408808
H          -8.48182857575623   -5.05017438559088   -2.77947888300997
H          -9.04169044412040   -2.69414217764925    0.95973384573677
H          -8.34185740720936   -2.02885130234676   -0.51681199374182
H          -7.66399591544260   -0.63540739179048    1.43075415393389
H          -6.20723387052241   -1.58444817683272    1.03604579332672
H          -6.94184139021449   -4.73948973971834    3.37742107743283
H          -5.49331723403587   -3.91005086064514    2.77843059935625
H          -5.54398760045358   -6.51853151461124    2.65841346685496
H          -5.43445269150030   -8.22211994438993    0.11463276148785
H          -2.28521623864743  -12.56778110218843    1.45559732658642
H          -3.10731325374460  -13.12127436010442    4.35096063348084
H          -3.71559162343341  -15.68816128961845    5.23075189485661
H          -2.56570130566996  -14.51398402370635    5.89150810353158
H          -2.85065435602617  -16.57241676614247    7.33226676156760
H          -1.17528791980368  -16.46425948406548    6.74514517617356
H          -1.13133771748875  -18.79396770922344    3.66049449527556
H          -0.12239032888039  -18.10061094911701    4.95791943002222
H           0.38818187722723  -16.88135386602308    0.62266871038402
H           1.18279326811918  -18.46860406959392    3.10983748313929
H           2.90884728938298  -19.26289380778203    1.66796293631011
H          -0.67179199662974  -18.41645481135214   -3.45902397152372
H           0.52306516935360  -18.43604895583695   -5.60906195379625
H           2.91437320172160  -18.98893894242898   -5.71032210881359
H           4.17159776902329  -19.52048337212907   -3.67215447153885
