82
 SCF done       -159.021766293832          0.000965575967
C         -10.19249008758381   -4.82841144810010    6.41118763258447
C         -10.91558117347774   -6.01268002941721    6.41312304363155
C         -10.61868778433965   -7.03717105686612    5.52527942539495
C          -9.58605395343583   -6.90837099625963    4.60833353441652
C          -8.86445734032691   -5.72673081316430    4.59040294261177
C          -9.16517476594374   -4.68068174265838    5.49339631689638
C          -8.25542577150783   -3.56796981044909    5.24657006071546
C          -8.11487526689221   -2.44644696903025    6.01500559033313
C          -8.87977283302424   -2.18226999066233    7.17146222437444
N          -9.47478000919829   -1.91256348921810    8.11468580393886
C          -7.14883139151417   -1.44002893074135    5.79334718789960
N          -6.37164955987953   -0.60429150218096    5.67721000183784
C          -7.51510704926949   -3.90148901115583    4.03350803410120
C          -7.72390722152141   -5.31963047805898    3.78682462690718
C          -6.87043011544323   -6.15282212046438    3.11402735448697
C          -5.58142939556709   -5.75876252220769    2.69316479899431
N          -4.50814861162717   -5.49705761010501    2.38261926008075
C          -7.15550675091235   -7.49188819919207    2.78960424411716
N          -7.35575666133044   -8.55507025730704    2.40294061431891
C          -6.96812907925263   -2.97060228550139    3.18987910398375
C          -6.64372227804041   -3.11565351622210    1.82797755718596
O          -6.86720141779280   -4.24787800981225    1.11634591376150
C          -6.52493679975355   -4.01731827427047   -0.17197066593813
C          -6.08638007564358   -2.71109459482466   -0.31947014049448
C          -6.15844971960826   -2.12910773591482    0.95422156859268
C          -5.82935027970898   -0.80807658846501    1.29648207390915
N          -5.57462741885328    0.27822556866163    1.55639110632137
C          -6.63895197421919   -5.06908521110266   -1.11649438060190
N          -6.90115122977187   -6.36644412419936   -0.73319904149562
C          -6.94346183379754   -7.13627989003194   -1.85038102787374
C          -7.13612543162103   -8.43005523737037   -2.30996447485925
C          -7.03981741795419   -8.35347831564104   -3.71075251622150
N          -6.78088370760846   -7.05037574753193   -4.09009598665823
C          -6.72679512308659   -6.28689081571791   -2.97489102009065
C          -6.52718275353241   -4.99155384329542   -2.50969361873131
C          -7.19000900400351   -9.35153053352178   -4.69329202221555
C          -7.53412780206937  -10.65680037598756   -4.50952610402685
C          -7.78519224670808  -11.49926775732495   -5.61445347441396
O          -7.66442188976942  -11.02738703895749   -6.86851854030956
C          -8.08573913870403  -11.98708662973543   -7.73722860816692
C          -8.44399540820801  -13.12507548757591   -7.02269722436529
C          -8.25905672215553  -12.82233946868927   -5.66730615345536
C          -8.49725728488053  -13.65008062802639   -4.56104993224937
N          -8.68299304201280  -14.32508935585706   -3.65330554269558
C          -8.08519089211905  -11.79540797644272   -9.13267800622145
C          -7.77288683128067  -10.66220686846876   -9.84045416375840
C          -7.38079816439089  -10.66198470298402  -11.24618347628969
C          -7.66672540792817  -11.61432247879853  -12.18591236296964
C          -8.45227164615084  -12.76480495494649  -11.95866803960348
N          -9.08488689001177  -13.71545274022603  -11.84104412737513
C          -7.24710875281489  -11.54829179954267  -13.53192398530508
N          -6.94013484245903  -11.55261363072980  -14.63758866585072
C          -6.62464322385704   -9.43479855292723  -11.46860782587255
C          -6.67514691193542   -8.64768228681140  -10.29525827497536
C          -6.03780757144740   -7.41969764562307  -10.23677755861531
C          -5.33746377507417   -6.98438638419083  -11.35153874464016
C          -5.28656563081339   -7.75431776603687  -12.50495032303348
C          -5.93016065340342   -8.98138547465671  -12.57859233939952
C          -7.52365724140336   -9.32433845218053   -9.32974151297869
C          -8.15682818712113   -8.72615016659462   -8.26878165628748
C          -7.74520807308595   -7.53016913316160   -7.66360629821833
N          -7.39073093357803   -6.63834244657926   -7.02734048516747
C          -9.30489111404248   -9.27437083611713   -7.65554460998999
N         -10.28289500425829   -9.65811150081034   -7.19489039732678
H         -10.43746448886981   -4.04415599350913    7.10841808190933
H         -11.72330921817948   -6.13558104472468    7.11816566482559
H         -11.19830668850599   -7.94724404525116    5.54590560640348
H          -9.36432084095080   -7.70873842021775    3.92022252424580
H          -6.86474713282509   -1.95472314699904    3.54775720689325
H          -5.74578703798788   -2.24514177687374   -1.22025912780914
H          -6.98057047288680   -6.68535630793088    0.21760881508436
H          -7.31777695035116   -9.31722431888800   -1.73913295526023
H          -6.77152200098245   -6.72935602693689   -5.05095946878083
H          -6.34175205645771   -4.10151556981786   -3.07442065058271
H          -7.04184594976636   -9.01624060645510   -5.71074279712778
H          -7.68492923661016  -11.07842370496355   -3.52880174364135
H          -8.80551641351355  -14.04563622467840   -7.43443348806710
H          -8.27506839571500  -12.70229508318413   -9.68885673714601
H          -6.07299929401549   -6.81505853463291   -9.34413452937351
H          -4.82773279621312   -6.03363130841496  -11.32018573592182
H          -4.73873129471044   -7.39447024676702  -13.36223309460225
H          -5.88189316215838   -9.56183896761073  -13.48504426378673
