112
 SCF done       -196.084350865152          0.001191411974
C          -1.85614319102263   -8.29530583872204   -7.82173423092940
C          -2.67534596282854   -9.35974320844969   -8.17702167572842
C          -3.98526032879415   -9.43267763800111   -7.73296803207159
C          -4.52076490596226   -8.43616962453915   -6.92754111070035
C          -3.71195946622309   -7.37550893769203   -6.56438118409552
C          -2.37218345519332   -7.30491996667174   -7.00573230655715
C          -1.76410478318101   -6.09576553076631   -6.45256258136562
C          -0.46325952233740   -5.69006860824640   -6.66059484963610
C           0.46026139882665   -6.37496173608341   -7.47250727747670
N           1.27032453358761   -6.87417261501000   -8.11655299140696
C           0.12744877645927   -4.53700423872084   -6.11359821350360
N           0.67180309648502   -3.61305576073922   -5.69630791717241
C          -2.75970211089722   -5.46534856617127   -5.62402540617548
C          -3.99636448218422   -6.17155216696420   -5.79441488935177
C          -5.26151101461053   -5.68354288758808   -5.52246948675722
C          -5.51778948867968   -4.34057849108588   -5.19335301167383
N          -5.77394738150310   -3.24015008231886   -4.97786424761899
C          -6.42917175808335   -6.45401577335659   -5.57714572018002
N          -7.41178199770794   -7.05076178528277   -5.51181740768073
C          -2.49678699790267   -4.40024237359825   -4.75317727425442
C          -3.11166855423658   -4.09325711464149   -3.56154768814575
S          -4.25644369127242   -5.13397506802818   -2.74190656054945
C          -4.47479364533682   -4.01143482461519   -1.42217841972918
C          -3.68203390531051   -2.89537146197427   -1.56994140358094
C          -2.85927977011784   -2.92973069904144   -2.76092859792834
C          -1.97154285865353   -1.94600468691241   -3.08312237762762
S          -1.71385434699210   -0.52461414980024   -2.15986650555383
C          -2.90803305045044   -0.67360128757113   -0.91245240495211
C          -3.70816339633782   -1.73887232052802   -0.73594991046317
C          -5.45319987623813   -4.32189960005032   -0.40853454359664
C          -6.62877811973747   -4.93686651910551   -0.78289258314857
C          -7.64513370336999   -5.18888484307656    0.15840099589977
C          -8.92798299958900   -5.72213497367880    0.05372736508990
C          -9.65550179295264   -6.43525439195433   -1.04241567296581
C          -8.96465063274308   -6.51575352112745   -2.41454336957755
N          -7.88473404282416   -7.49066469216129   -2.44648480272901
C         -10.02097086682133   -7.86056927946033   -0.56064810498090
N          -8.87190272478836   -8.49085307517891    0.06743796203565
C          -9.55448148893793   -5.52734914017431    1.34171336861527
C         -10.84345046835887   -5.63083820142568    1.72230977859608
C         -11.27139421881594   -5.34473963778665    3.12202798875795
C         -10.17636561379295   -4.89553497773040    4.03106218411884
C          -8.91236044623231   -4.70271248462561    3.60964241159874
C          -8.56209414096814   -4.97023139671119    2.26537391743847
C          -7.41251802228815   -4.75166225062362    1.53284647650040
C          -6.16836583819557   -4.19566820102954    1.90358882744115
C          -5.21201035754404   -3.99189681134688    0.96201481673190
C         -11.94033062122145   -6.60681059244024    3.60680470916582
C         -11.28086589672109   -7.59305915011578    4.24142155623311
C         -11.89733409885884   -8.76452453133759    4.73866895590759
S         -13.60677863806455   -9.03644439082920    4.56064314286421
C         -13.55800403197165  -10.49741504771737    5.53452933229623
C         -12.25014221067289  -10.81106053727689    5.89066895098875
C         -11.29910886737615   -9.80720844655834    5.47600275024123
C          -9.96212964804256   -9.87627912819821    5.81946510632599
S          -9.26134270354824  -11.13743677116601    6.72785730535838
C         -10.56098074097688  -12.24044717571249    6.92154778605889
C         -11.83367106521775  -12.00807668683907    6.52548554744037
C         -14.78018523412032  -11.14494322531685    5.79081627597605
C         -15.14743378828326  -11.97031805257610    6.82969156641536
C         -16.30166645843098  -12.85993513783933    6.77613094649166
C         -17.28820098016861  -12.89631296799932    5.82550249693538
C         -17.40244841821060  -12.05025466502783    4.70210419900155
N         -17.57759390357833  -11.41342516985895    3.76186514474875
C         -18.37671920093626  -13.79500708812908    5.84728568774430
N         -19.28864312506955  -14.49030990431992    5.79414067019630
C         -16.20958375252350  -13.74686139671492    7.92978853169644
C         -15.10071118862341  -13.35799779742611    8.71429683174269
C         -14.77552538402404  -14.05338981152250    9.86710603069532
C         -15.56202608484380  -15.13568767634813   10.23443490851770
C         -16.65643840314169  -15.51240490723413    9.47109570236142
C         -16.99184407633615  -14.82362980659331    8.31388656527907
C         -14.49967443489305  -12.17771944772208    8.11015583336782
C         -13.63215796780449  -11.32242874232568    8.75196353752216
C         -13.00498519755959  -11.60656567776983    9.98023037621076
N         -12.41835899636244  -11.78931676483910   10.95087568959677
C         -13.30760005998487  -10.02335889028631    8.32365392245831
N         -13.02656377797310   -8.94022910239432    8.06093210754219
H          -0.84193699178362   -8.25365649831317   -8.18337599781358
H          -2.28043467582685  -10.14014275665821   -8.80970154013121
H          -4.60189997085185  -10.27205713259721   -8.01710945977309
H          -5.54291238092795   -8.50135557104296   -6.59025936792541
H          -1.64538106020120   -3.78446729007197   -5.00304981296596
H          -1.34085298725599   -1.99670100342400   -3.95522985205542
H          -2.95453021109479    0.19261833377027   -0.27400567852775
H          -4.43575761795317   -1.71248115439754    0.06189998401687
H          -6.78088968427547   -5.13377300691229   -1.83182604758706
H         -10.59997476006150   -5.89828801392706   -1.20835459726486
H          -8.66389823433039   -5.50273005058726   -2.72720626355173
H          -9.71318189551438   -6.85901861435774   -3.13410899597320
H          -7.04972988486011   -7.12812744849820   -1.99744163516026
H          -7.65359864455156   -7.69841813749506   -3.41361689989429
H         -10.40551356225526   -8.42060206900458   -1.42826043825296
H         -10.81612270475221   -7.81209921557173    0.18923519980180
H          -8.11813727724466   -8.50273099549264   -0.61576880557510
H          -9.09576289038792   -9.45521664463146    0.29382726637269
H         -11.62570096798703   -5.92590382831201    1.03771179462585
H         -12.04132809458315   -4.55913980226946    3.09510294269038
H         -10.46084268218662   -4.71998882614506    5.05741124038317
H          -8.15386440502292   -4.33995179402363    4.28848914595183
H          -5.98980199153681   -3.93651465291876    2.93684436919515
H          -4.24260548055090   -3.60456157262093    1.23705808916338
H         -12.99592612995421   -6.71054433121154    3.39895476934045
H         -10.21977379221626   -7.48468188575035    4.41755136958728
H          -9.26617439945927   -9.09949560335274    5.55520496081686
H         -10.27359064097748  -13.15696019488277    7.40941947087326
H         -12.56457167467474  -12.79010093909005    6.67026792426998
H         -15.53702424740565  -10.94972622200348    5.04214059571399
H         -13.92714325266780  -13.77300612963529   10.46955890758972
H         -15.31627011898513  -15.68841224932492   11.12829724674468
H         -17.25821421299983  -16.35443894415233    9.77695333816226
H         -17.84522588926428  -15.13271562561873    7.73391128151988
