86
 SCF done       -177.636096100235          0.000695813813
C          -1.84575982886228   -6.89804591510005    7.16951674799464
C          -0.99046387110823   -5.81388712464341    7.04366063968261
C          -1.26397445107380   -4.78378186539356    6.15389928853150
C          -2.40787428903496   -4.80242687780121    5.37052012379948
C          -3.27277680146847   -5.87714650189835    5.49173278199524
C          -2.99029247314856   -6.93415558161459    6.38742987528792
C          -4.04056965087537   -7.93586284608469    6.28348939267614
C          -4.19498800572792   -9.03168423314081    7.08481064136630
C          -3.33258683216936   -9.35221139571828    8.15768516158711
N          -2.67462752658537   -9.67303318425698    9.04080766783393
C          -5.24364582370395   -9.97432314835001    6.99857307892482
N          -6.06630776240181  -10.77454000187535    6.99678804423752
C          -4.88321186075284   -7.53952638763727    5.15199270340712
C          -4.53239419291397   -6.15814769946786    4.82547462906705
C          -5.33911973440904   -5.23603750625680    4.22177261004315
C          -6.64961404197242   -5.48253372574495    3.76272918384682
N          -7.73070784620910   -5.59629672518887    3.39399700524904
C          -4.97088763208019   -3.88842481512324    4.01395915219650
N          -4.73086265408426   -2.78684895967247    3.80296335108566
C          -5.73019099407655   -8.38016065199100    4.49921542896603
C          -6.30162383009760   -8.23533094500455    3.20769533204589
S          -7.84637597827399   -8.99279474643393    2.89295646271760
C          -7.86077670713360   -8.47310046118672    1.16305389504173
O          -8.79098337774256   -8.72893884485321    0.43114486529932
C          -6.62593223279309   -7.78727917097386    0.90882737285624
C          -5.78949354360900   -7.66448205844867    2.05455842675674
C          -4.50973965324359   -7.05756493716935    1.79621977683846
O          -3.57717640314773   -6.83648331543349    2.52291307331824
S          -4.47911056331571   -6.61226149184634    0.03473165987771
C          -6.08231850656589   -7.25779881202777   -0.25952675447953
C          -6.61402571238788   -7.19855992237787   -1.55944597749917
N          -7.86518845008576   -7.66640317106406   -1.88984707654305
C          -8.04436838082175   -7.48319378159429   -3.21583338147488
C          -8.93544022287435   -7.68125375425651   -4.25832313805818
C          -8.29336284145187   -7.19838269206625   -5.41561228494729
N          -7.04648116528625   -6.70905096430466   -5.08086880161814
C          -6.86222633099092   -6.86922250222699   -3.74811063519752
C          -5.96982643053762   -6.68720435642642   -2.71050364569142
C          -8.71424637613660   -7.19751848679738   -6.76033237403316
C          -9.92517615923772   -7.64906990576796   -7.19930815394091
C         -10.33845212244620   -7.71732955333491   -8.54332910156826
S         -11.97132506991809   -8.29188590948067   -8.82927036683619
C         -11.82573758236546   -8.15586849556926  -10.64171852628848
O         -12.71733620178513   -8.42140069325881  -11.39111232980150
C         -10.47988085212211   -7.69728080592062  -10.89715580529183
C          -9.68668725250913   -7.44298279134393   -9.74990220684962
C          -8.36468842234381   -6.97216573298496  -10.06804141735193
O          -7.42406206684854   -6.66608028543095   -9.38290313020360
S          -8.24038038496358   -6.88571168340495  -11.88611704802292
C          -9.88976790483864   -7.43915267718399  -12.11924706578080
C         -10.46116533167957   -7.72140437824453  -13.38147594539523
C         -10.13265466859924   -7.16271843560200  -14.58217823438411
C         -10.37496672097785   -7.76543691436024  -15.89079034367305
C         -11.15300329608352   -8.85514971952740  -16.16707526464918
C         -11.87438157825365   -9.62412424499234  -15.22623634961837
N         -12.46447967980376  -10.32644956854812  -14.53701507195993
C         -11.34755227425463   -9.37566209272156  -17.46616126429529
N         -11.55680723592443   -9.84454578038815  -18.49218253965380
C          -9.57017085002541   -7.01911700453933  -16.84947869116993
C          -8.95013413295603   -5.93430210455116  -16.18722401677625
C          -8.09012148921444   -5.08736599698039  -16.86641942866384
C          -7.85698191096116   -5.32303156007154  -18.21292269372355
C          -8.47545701087007   -6.37790116394680  -18.86965997747281
C          -9.33477504897261   -7.23512328823237  -18.19875454744798
C          -9.41228393553719   -5.91418501648484  -14.80980933318671
C          -9.42513424439031   -4.82348229285656  -13.98409714716098
C          -8.78091293497740   -3.60487518411864  -14.28733962581611
N          -8.26684563964167   -2.59756347038848  -14.47930337660504
C         -10.16717479405888   -4.74697454475894  -12.78537008608801
N         -10.79897312885230   -4.61801923212364  -11.83593724039413
H          -1.61077609052698   -7.69390100515387    7.85688692585751
H          -0.09422564546120   -5.77703196559082    7.64375825865262
H          -0.57564902960650   -3.95723085814895    6.06630755206536
H          -2.60341764165147   -4.00580548903392    4.67184976086773
H          -5.99064245092083   -9.31105187566593    4.98742009863306
H          -8.49805357616448   -8.09651323842082   -1.21525727450634
H          -9.91128243726783   -8.11900890944381   -4.21629930357941
H          -6.40015606028694   -6.31196318782804   -5.74259972241050
H          -4.98712900746686   -6.26121254903403   -2.72701500088788
H          -8.00145288382427   -6.82278613546092   -7.48141408301395
H         -10.65366372335003   -7.99686954925876   -6.47997260751311
H         -11.19816546617113   -8.51622484100052  -13.36300044173632
H          -7.59915892015888   -4.27052424182329  -16.36283411025209
H          -7.18440212689164   -4.67638448058335  -18.75512509149968
H          -8.28281106958091   -6.54008569770718  -19.91902477036880
H          -9.80030096637644   -8.05151588704459  -18.72551816294789
