106
 SCF done       -200.808638762334          0.000517520517
C          -4.15150260283955   -8.23505160571162   -8.53905938385033
C          -5.05781700977142   -9.10428140852643   -9.12834615922517
C          -6.24423084493490   -9.44228051141109   -8.49312897515361
C          -6.56584842876001   -8.91055241859228   -7.25288737827509
C          -5.67076697128829   -8.03807883578858   -6.65805231052886
C          -4.45456631385431   -7.70376951925211   -7.29520437338888
C          -3.70341628085997   -6.80229991747477   -6.43160712678796
C          -2.54742578146665   -6.14941880836920   -6.76344062766712
C          -1.90827892312144   -6.26429266642810   -8.01710266738648
N          -1.33825918611691   -6.30630611085172   -9.01221834632644
C          -1.85351992700270   -5.23815210801562   -5.93903756796368
N          -1.23870140473489   -4.48477776843198   -5.32852209936972
C          -4.43076850760880   -6.73039485763254   -5.16617861964923
C          -5.74540828782566   -7.30943421416328   -5.40062704082617
C          -6.90354509399462   -7.01273429357421   -4.73296251096767
C          -6.99872230958771   -6.07648906815125   -3.68589401470096
N          -7.12115363501582   -5.32100958043148   -2.82963068641975
C          -8.16959516987793   -7.53369726222077   -5.07775829883227
N          -9.22694162220300   -7.91584373442941   -5.30525201563608
C          -3.87494094926486   -6.30152420857237   -3.99096394771445
C          -4.32592397148386   -6.54595926614430   -2.68100839261722
S          -3.68574776863431   -5.61359383176993   -1.33212174942652
C          -4.63356198680110   -6.43796399305762   -0.11639784035236
C          -5.36502447407950   -7.41366851897854   -0.75959795429582
C          -5.20278842123007   -7.47150158845935   -2.14917589293367
O          -5.98595530133952   -8.47577623717563   -2.62420972196631
C          -6.62608735295313   -9.00152887414935   -1.54767885193942
S          -7.68208549946207  -10.21454803325611   -1.63737315320316
O          -6.26550252531477   -8.37800665238722   -0.40747348822090
C          -4.65546032643389   -6.05294136293526    1.26035102307166
C          -5.45012094851384   -6.74394017049759    2.15208072227718
C          -5.55785812477980   -6.29008724568511    3.47745280701815
C          -6.33277459477347   -6.75684458150984    4.53248339167528
C          -7.20662438312449   -7.96170417084704    4.51139183827133
C          -6.93863917837896   -8.90034004201281    5.70523134408085
N          -7.23471973853111  -10.25954457440140    5.30623303571867
C          -8.69272226608290   -7.56226963286489    4.42228156191904
N          -9.51824928464774   -8.73935744591821    4.20898515135228
C          -6.14545876032525   -5.82472243116241    5.62139282792981
C          -6.73755890556333   -5.72699990453329    6.82587992898013
C          -6.45446840303744   -4.58061857862781    7.74141784999764
C          -5.35436306115172   -3.67615550188779    7.29218218207206
C          -4.78053135677346   -3.78043347472444    6.08002177667406
C          -5.16818059189617   -4.81134025581009    5.19041836738753
C          -4.82240641850504   -5.10027745258287    3.88764114853246
C          -3.96776606124276   -4.45440898262341    2.96128777404226
C          -3.89063819732052   -4.91819555720201    1.69054747459769
C          -6.33024918253519   -5.06918115317712    9.15585437902826
C          -5.21242904572627   -5.01009138530769    9.88760172650196
C          -5.16627385813726   -5.42698616571612   11.25478441715747
S          -3.71330643962701   -5.32169914993873   12.21396538304170
C          -4.46359964199919   -5.92416418318854   13.68612849460806
C          -5.78798284247233   -6.17465698882328   13.39121141430885
C          -6.16729442754465   -5.90576219109005   12.06698886199989
O          -7.49932439731854   -6.17825384587817   11.95244678614369
C          -7.91353051496753   -6.58730282308763   13.17128640480777
S          -9.42176629957475   -7.01507505465530   13.53489963690054
O          -6.89163183916205   -6.58619046624599   14.06789351373005
C          -3.72844865733625   -5.97059526629876   14.89034312303998
C          -4.07545157182776   -6.56529412838149   16.06893523858471
C          -3.49488882025518   -6.19808264779734   17.36280652003687
C          -2.30224387743738   -5.56897500914079   17.58592528808907
C          -1.37637617638596   -5.19351946151461   16.58804802324519
N          -0.57816403711982   -4.86688603893560   15.83066362947272
C          -1.80899536691362   -5.24606784968524   18.86977682193803
N          -1.35095879201218   -4.95290219532577   19.87981708381859
C          -4.43688520383920   -6.64137606741349   18.38077855016066
C          -5.44996889950651   -7.40976310773449   17.76297424343836
C          -6.49545952484902   -7.93168565258472   18.50562855854630
C          -6.52159895090785   -7.68698505317869   19.87079010475733
C          -5.52172333732458   -6.94355196229975   20.48237709747115
C          -4.47128329664672   -6.41354945817862   19.74793268552299
C          -5.14804177217863   -7.51338783993016   16.34376296312241
C          -5.60592239084981   -8.49221587911362   15.50522937218579
C          -6.57941429066066   -9.44900853555475   15.86834313240679
N          -7.36299033695874  -10.25245497228728   16.10339504685894
C          -5.10135842923132   -8.71763355234815   14.20977178913287
N          -4.71762199589286   -8.92079699223896   13.14702142513365
H          -3.23137454541276   -7.99119935348652   -9.04397648918662
H          -4.83017866186547   -9.52742440481096  -10.09473894141389
H          -6.92794144800131  -10.12950858362641   -8.96735263128860
H          -7.48517478444164   -9.18759754933561   -6.76307985564882
H          -2.94112519270093   -5.75840972038407   -4.04158157217821
H          -6.00901272840082   -7.60755577374193    1.82732763626368
H          -6.96932313380536   -8.54267765542805    3.61454315532003
H          -7.52487110807814   -8.56536401293886    6.57638813969462
H          -5.87779143600662   -8.84815739057663    5.97265940999962
H          -8.21794570118971  -10.32319664673959    5.05860913815451
H          -7.04475164325407  -10.90852049549009    6.06114208546577
H          -8.79877243527691   -6.80560594554778    3.62555214641734
H          -9.00674174051151   -7.09905330066206    5.36210476488232
H          -9.31866557793314   -9.14206909403515    3.29820744218875
H         -10.50131179932985   -8.48997468458307    4.22552882740583
H          -7.46576156392083   -6.44590186945335    7.17075752882662
H          -7.38113578867497   -3.97481595728639    7.72673228072220
H          -5.08263494283125   -2.88551779903723    7.97437695746526
H          -4.01957293707558   -3.08042275962774    5.76839538574500
H          -3.39922749857673   -3.59099493730495    3.27161585662449
H          -3.26042862010989   -4.43385826473348    0.95931640604718
H          -7.22921746256274   -5.49082635281400    9.58462675177499
H          -4.29191189657796   -4.62124036581090    9.47838614338412
H          -2.82000175824577   -5.38403846352232   14.86909479895484
H          -7.28272690462066   -8.50076410505094   18.03846766670466
H          -7.33387830915676   -8.07942804142497   20.46294416664174
H          -5.56236438038828   -6.76758260482209   21.54632477981341
H          -3.70896450837543   -5.83109131775584   20.23856731904374
