96
 SCF done       -178.908069216655          0.000775907832
C         -12.05008883580718    0.70112359082961    0.85923075672683
C         -13.23388490537909    0.05666178177563    0.52899579261311
C         -13.29545995648466   -1.32574089564889    0.43920771258060
C         -12.17446304225301   -2.10593297325080    0.68370346843473
C         -10.98673073252636   -1.47353859572282    1.00708703278053
C         -10.91975802188484   -0.06442706820958    1.09359870689715
C          -9.55257082546835    0.32236971118349    1.42574056799594
C          -9.11781855711528    1.60503585680459    1.65870200928909
C          -9.95058411119114    2.74199414395891    1.63568903642947
N         -10.56677686517043    3.71116431750930    1.63693290288801
C          -7.79545293676814    1.96824359103761    1.97640841052031
N          -6.73212222948074    2.32578856085200    2.23038375289028
C          -8.76358086343615   -0.89470216888114    1.43232315497230
C          -9.68042194160990   -2.01313488967980    1.35362400498465
C          -9.43182212996238   -3.29400430286357    1.78329066614804
C          -8.26402557123451   -3.64508301104565    2.48915170279409
N          -7.35325932747933   -3.92753764947383    3.12978273973869
C         -10.32110460886883   -4.37012223461026    1.62364723579624
N         -10.97711430388014   -5.29953952600249    1.45938183409311
C          -7.38423049450789   -0.91955299287565    1.38018176769567
C          -6.57302789343518   -1.95959467868223    0.91290748772903
O          -7.13993068869945   -3.02766318263482    0.27484775820717
C          -6.15722200627120   -3.83813228731482   -0.15845688164359
C          -4.91303795844860   -3.30339767710647    0.18021178448134
C          -5.16858708588484   -2.10313756273499    0.87780962442663
O          -4.19125823323871   -1.33732545596902    1.39107978944594
C          -4.47915397289387   -0.37968531179807    2.39493416414007
O          -3.75211815016644   -3.91465999948616   -0.16246511637836
C          -2.56607236742591   -3.47671733119206    0.47752189774349
C          -6.47439208764436   -5.06118402436786   -0.79203917962326
N          -5.49626547556088   -5.87055977111033   -1.32320823546979
C          -6.09177136005031   -6.99051089181775   -1.80502973713840
C          -5.85767559075711   -8.20614285146795   -2.43393173257976
C          -7.11129888461874   -8.82288753997174   -2.56647336567962
N          -8.08757885628735   -8.00147825443808   -2.03764669612839
C          -7.49129998071945   -6.87624563640970   -1.56774876097182
C          -7.73318689220500   -5.66203525272840   -0.93973198238042
C          -7.34874243272478  -10.08426974812986   -3.15392100317605
C          -8.55097003751702  -10.70096430181111   -3.31947313278340
C          -8.65409676271356  -11.96019235548711   -3.96953219080991
O          -7.48832217556933  -12.52642820283569   -4.37762346066005
C          -7.76539316209511  -13.68341543150337   -5.02956002471750
C          -9.15519809954206  -13.89390645108388   -5.01375164810632
C          -9.72252851137642  -12.78511665489869   -4.34245491488958
O         -11.06447058061262  -12.67576569971403   -4.15532563150634
C         -11.60772194778905  -11.46834806376961   -3.67770951433209
O          -9.69953965343127  -14.98053311976608   -5.56475472823479
C         -11.10895459651437  -15.10065367679525   -5.60173798176549
C          -6.79464201295547  -14.53061726836031   -5.56984967827880
C          -5.43401600094435  -14.33231204795002   -5.64731299376268
C          -4.46026659725206  -15.40211040450452   -5.77954230258237
C          -4.68363644469756  -16.68748617671666   -6.20216350483480
C          -5.91965522560119  -17.19997616916980   -6.64727360521060
N          -6.88342425209461  -17.69395619738742   -7.03035578784258
C          -3.68305473981098  -17.67690653309386   -6.28969953040584
N          -2.92104817683047  -18.53122639348689   -6.38276404331544
C          -3.17399883971820  -14.85393446824041   -5.36119554646626
C          -3.32960412162790  -13.47398139630794   -5.09961732768986
C          -2.25750917703466  -12.71125373267225   -4.66916838387236
C          -1.02921960429660  -13.33190547739323   -4.49590037096412
C          -0.87194978906073  -14.68431190178018   -4.75948850210550
C          -1.93799312347605  -15.45751838448737   -5.19627229541523
C          -4.70029274490675  -13.10248282164963   -5.41877027272028
C          -5.13313945938037  -11.83025119184492   -5.69973899545014
C          -4.41924388462760  -10.66511305014322   -5.36928213054602
N          -3.91805224275693   -9.67910169168771   -5.05578850000569
C          -6.31988867494802  -11.55223739608767   -6.40887584531525
N          -7.23210066025727  -11.28442883981508   -7.05265797783395
H         -12.02309319454545    1.77618947393338    0.92591869042593
H         -14.11878979887766    0.64456598415296    0.33853717366522
H         -14.22678439204959   -1.80374801784164    0.17592416946831
H         -12.23195881966156   -3.18009426031234    0.60980514826041
H          -6.87509295143766    0.00047933902460    1.60822729879462
H          -4.82770714625854    0.56285953068149    1.96653422129282
H          -3.53161548575269   -0.20403645111682    2.90360761078651
H          -5.21292873962006   -0.76111099281467    3.10778232371014
H          -1.77534160549008   -4.11598288908377    0.08881922599276
H          -2.63792781161685   -3.59736472123678    1.56060751729337
H          -2.34923031278661   -2.43376347190717    0.24207021392172
H          -4.51657476628321   -5.64092106729257   -1.30618226213678
H          -4.93072663007179   -8.61427122282551   -2.78291888031865
H          -9.06879842382815   -8.21270629235571   -2.00081932692029
H          -8.66387769332269   -5.25057865214840   -0.60667611126103
H          -6.46220058868161  -10.58750197389778   -3.50868444559863
H          -9.45603963971409  -10.23288277268671   -2.97374342042726
H         -12.68740141296958  -11.58792402575982   -3.76140264627665
H         -11.28867044742552  -10.61834151714879   -4.28669754000445
H         -11.34805431000507  -11.30237476875639   -2.62787331904929
H         -11.30149441277252  -16.05576059039171   -6.08670637306147
H         -11.55719172046139  -14.29294451519843   -6.18363992120281
H         -11.53437282644172  -15.10010501067618   -4.59651120359555
H          -7.19545647988947  -15.48642830359842   -5.87612081623599
H          -2.36884295041681  -11.65923376417824   -4.46150184570092
H          -0.18600116973521  -12.75187140333006   -4.15274427485553
H           0.09369132822791  -15.14663850946351   -4.62235404901949
H          -1.79541612135319  -16.50655142191303   -5.39614940668160
