118
 SCF done       -208.884942208040          0.000960714605
C          -9.00805356662027   -9.14963398921756   13.46269193446700
C          -8.67175274698537  -10.44435036964388   13.83156338227876
C          -7.52412753807120  -11.05340616546422   13.34544756600394
C          -6.67269654328303  -10.38160384786695   12.48028294767317
C          -7.00108988699536   -9.09152704826279   12.10231614852567
C          -8.17406119053486   -8.47095945530075   12.58921344629803
C          -8.27505879676646   -7.13436084308861   12.01291989426572
C          -9.21567566866110   -6.18833313856493   12.33348743283376
C         -10.23613435194455   -6.37658853995697   13.28806495017502
N         -11.08975014670194   -6.46020855402771   14.05134898803770
C          -9.26885508484099   -4.89016098508887   11.78870198559612
N          -9.35664148730272   -3.82094981648236   11.37644400279038
C          -7.19988141408018   -7.01774933722611   11.04258332643758
C          -6.30051074427363   -8.13651020040806   11.25818799090069
C          -4.95662967725834   -8.14332130317014   10.98276443481894
C          -4.27001791661539   -7.00713025478273   10.50765498561455
N          -3.67682494530039   -6.07952055407981   10.18171882703073
C          -4.10377743167152   -9.23283573816018   11.24100308195279
N          -3.36791521211879  -10.09976623128726   11.40135305835650
C          -7.15152279789554   -6.07822634835699   10.04057331357696
C          -6.46876713325527   -6.12682725228795    8.81988148202560
S          -5.78010488444185   -7.56303168089703    8.06234937223845
C          -5.28778830680824   -6.72100227073325    6.60003729009357
C          -5.66670874234026   -5.39429877829064    6.71382288944394
C          -6.32969372279546   -5.07524533329650    7.92028287697082
N          -6.62347984813352   -3.74524605595548    7.88511993884011
C          -6.16582254968823   -3.20715376202484    6.70634646158900
S          -6.29582494500269   -1.64920656465025    6.23034984008304
N          -5.58966361917147   -4.22650026043697    5.99440660339511
C          -4.59635118684293   -7.43503867270661    5.59632410681098
C          -4.22912266817761   -6.93094967304773    4.39157013497221
C          -3.45480731078437   -7.59921474068262    3.38630802182929
C          -2.86340384227501   -8.83053799591172    3.58520062926976
C          -2.05534936613373   -9.40167117205344    2.58677101402410
C          -1.32688098445761  -10.58436396834960    2.57203576874062
C          -1.27085642532368  -11.59762891148503    3.66321698783481
C          -1.79803288032014  -12.96702451735666    3.20277109622196
N          -3.19149315747689  -12.84967425426461    2.80459826704247
C           0.14330244507480  -11.72921469408199    4.25930990673280
N           0.10072607081204  -12.57126703298414    5.44184210565914
C          -0.62829365019591  -10.62295228892679    1.30737941397686
C           0.25507898020560  -11.49790226155658    0.79291939977350
C           0.91757297332484  -11.26605033134263   -0.52603513468126
C           0.42903019113479  -10.06615345713266   -1.26773453357906
C          -0.45325395975045   -9.19840011970260   -0.74159358745609
C          -0.99582375552350   -9.41647938149071    0.54814777634291
C          -1.85795760981631   -8.68395478230342    1.33329438647275
C          -2.50021237631790   -7.43731627476533    1.13967761181580
C          -3.26126763342784   -6.91970751318178    2.13307150925994
C           0.91927639031144  -12.54450142879977   -1.32207332436978
C           0.35431432134470  -12.70649702125196   -2.52168779432165
C           0.41110935746619  -13.91886811536415   -3.28129887617951
S           0.04137854634676  -13.89096159504670   -4.99630671195612
C           0.44424720035953  -15.58514702539171   -5.23515587983068
C           0.78842097637317  -16.12449089774353   -4.00854872417412
C           0.77553438291902  -15.19950066202722   -2.93122648101471
N           1.09367147708756  -15.92098582643602   -1.80669482140141
C           1.24705633088972  -17.24648999592032   -2.13806850333579
S           1.58821402434854  -18.45291101995039   -1.09088703309195
N           1.09317555566808  -17.35308926839809   -3.49765421331117
C           0.43901059765119  -16.20197210007736   -6.50488417436775
C           1.22944883856466  -17.26784303049617   -6.81225390194575
C           1.23985124682415  -17.93392071491416   -8.06190738572640
C           0.16103490821333  -18.14930746348359   -8.87607450889707
C           0.22285735451458  -18.43229457460649  -10.30530989962483
C           1.32588073395524  -18.78254342254685  -11.03647998676001
C           2.62649665697872  -18.96917977484730  -10.52216372263588
N           3.70840512930441  -19.14056100214900  -10.17808253494053
C           1.30607935345767  -19.04469177041216  -12.42348158219102
N           1.36522347478143  -19.26974173895143  -13.54729721695676
C          -1.12630874086148  -18.25415649837155  -10.82709102162088
C          -2.00745056069758  -18.01536535271878   -9.74749732058909
C          -3.35575334395468  -17.79047330722830   -9.97251756367245
C          -3.82091236525362  -17.80867071986190  -11.27879743273468
C          -2.95968157807796  -18.05292633076813  -12.33905727752970
C          -1.60745147109286  -18.27732506864171  -12.12655710664503
C          -1.24740118121649  -18.08848208817489   -8.51015299045991
C          -1.77568392113546  -18.34397662725194   -7.26869226752930
C          -3.15773743742679  -18.36678952236199   -6.99054278680684
N          -4.26794489900268  -18.37605481660460   -6.69958406262204
C          -1.00908347450132  -18.68788150647653   -6.14261447889771
N          -0.43523400901755  -19.01451013456965   -5.20101304927732
H          -9.90424833172655   -8.69387342829742   13.85049666549082
H          -9.31784585330453  -10.98448503587610   14.50665490008922
H          -7.28821490254845  -12.06379671536353   13.64282026484010
H          -5.78420890799025  -10.86291425847730   12.10412123453342
H          -7.78860263243359   -5.20961424363282   10.14592987161225
H          -7.08451695287838   -3.19933302694442    8.59546184463216
H          -5.13938460646337   -4.07533258127718    5.10807995469440
H          -4.35866611420686   -8.45738237653829    5.85230749056315
H          -4.53471699450627   -5.92309569903966    4.14286178083892
H          -2.99322986149713   -9.35165134484000    4.52095347370906
H          -1.92771623501677  -11.25892990417594    4.47226194077731
H          -1.62511940514547  -13.68006501756363    4.02380284030487
H          -1.24014580186399  -13.30902222938608    2.32879276585213
H          -3.76142057338465  -12.57576610283233    3.59846871238141
H          -3.53826383538723  -13.74261331107816    2.47231854700662
H           0.53170038568043  -10.71472238369727    4.45484357216055
H           0.81017859096246  -12.20837267949767    3.53956077711242
H          -0.44094145013886  -12.12485540708657    6.17497819742865
H           1.03511575330819  -12.72716722462117    5.80256157276778
H           0.54996339662059  -12.39489405842780    1.31860224533620
H           1.98107057732247  -11.07527453781490   -0.28385669575311
H           0.86785225149045   -9.89805343791975   -2.23928237971337
H          -0.75837026295589   -8.32172855459066   -1.29407537950955
H          -2.36726345092018   -6.90767614710058    0.20798028129603
H          -3.74779946763235   -5.96402277381823    1.99948194849443
H           1.44594197918173  -13.36519605840035   -0.85430464869670
H          -0.15155084023036  -11.88170958390232   -3.00224429195245
H           1.11043695378740  -15.60311299725370   -0.85311092327439
H           0.93579659252539  -18.23533959222142   -3.97686485104334
H          -0.17823251704266  -15.75054133060987   -7.27134099471006
H           1.99153780592001  -17.56455875309612   -6.10399223359507
H           2.21203010198515  -18.25928615399727   -8.40725377875590
H          -4.03268502068348  -17.59290706050179   -9.15719515262374
H          -4.86766113503961  -17.62941573719223  -11.47052223810619
H          -3.34413233194379  -18.06631176683752  -13.34735506539836
H          -0.95379374452717  -18.46115134691159  -12.96308094197061
