108
 SCF done       -182.165089105289          0.000952294192
C          -2.47304363716506   -3.87397178068622    1.64926139119778
C          -2.05122885301874   -5.06612401299154    1.08002308653116
C          -2.39657046166423   -5.40190359450831   -0.22167617818859
C          -3.16494712989072   -4.54732547848027   -0.99722925933084
C          -3.58810996456799   -3.35186284893300   -0.44011639265053
C          -3.25126891485850   -3.01314283528392    0.89061060255266
C          -3.84837781069668   -1.72454860913433    1.21856241279805
C          -3.66254854688761   -1.02798178597183    2.38179144390968
C          -2.83568780774199   -1.46120093177473    3.44062595179216
N          -2.18261560906482   -1.75039232350262    4.33911200132896
C          -4.23081277962827    0.22657523402472    2.68980757860212
N          -4.64935554125267    1.24508911312629    3.01559760391528
C          -4.68501989301824   -1.34912496592494    0.08191831213134
C          -4.34697290312474   -2.25246312341708   -1.01081603560804
C          -4.47351765345336   -1.97190122011212   -2.34605578213362
C          -4.89925971144200   -0.71824481112183   -2.83145858245773
N          -5.16378989075152    0.30860426368382   -3.27130102083251
C          -4.09378813621698   -2.85739886298840   -3.37478597943735
N          -3.81210647680010   -3.55219255127945   -4.24402945079693
C          -5.65482630617043   -0.38966728507179    0.10967434560024
C          -6.76198106685341   -0.21247002452293   -0.76391806135861
S          -7.31233239580105    1.42711320610457   -1.02864429747245
C          -8.59929265094383    0.87316309134729   -2.00132301534982
C          -8.65502590705808   -0.48893124162848   -2.08778452705431
C          -7.60516924781751   -1.12278714144668   -1.38516377543807
C          -7.58693946026743   -2.60410463333497   -1.17138450384552
C          -8.51145537956812   -3.38135907460683   -2.12122156645839
C          -9.85567232078150   -2.65258056186583   -2.26626231624750
C          -9.67877541964360   -1.25779836186769   -2.85825194487984
C          -7.85703497369919   -3.65450053130744   -3.46209836406020
C          -7.13996539666202   -2.73554578304932   -4.11300216453700
C          -8.03112975831730   -4.97963509171763   -4.02157543289292
N          -9.10586275877092   -5.78643767468377   -3.70498423803298
C          -8.98841208987714   -6.95200792477287   -4.39975898473061
C          -9.59784978425262   -8.18007097649534   -4.64732507475748
C          -8.75902598953072   -8.85331175465956   -5.54077653360352
N          -7.66794125283523   -8.05692984416134   -5.82641971468973
C          -7.79063764457443   -6.88863784114349   -5.14537847342127
C          -7.19442184123218   -5.64662094537416   -4.90897490880307
C          -8.89862696716357  -10.13281991494087   -6.14061882663634
C          -9.94499792921850  -10.96966342601697   -5.96131002698747
C         -10.07322970366014  -12.24071349873347   -6.58357338231564
S          -8.85340259624882  -12.84778908407141   -7.67819630401704
C          -9.74878372296716  -14.28509997719835   -7.93997486675044
C         -10.92879813730152  -14.30311831119444   -7.25020683825974
C         -11.11197044494797  -13.14232362134617   -6.46707310779778
C         -12.32489213335974  -12.98132475214245   -5.60771312597689
C         -12.81486420659087  -14.36275036037899   -5.16282010479024
C         -13.13957072914726  -15.18233503968292   -6.41863477855990
C         -11.91708559173082  -15.42615964549592   -7.30964983072286
C         -11.82436417344037  -15.05387944045319   -4.24349731109640
C         -11.09710282429940  -14.43699011041845   -3.32127660873412
C         -11.86487984701738  -16.51654953655990   -4.22779800669794
C         -10.95601930334804  -17.42341846169934   -4.63252882836871
C         -11.22119489535955  -18.86691172208334   -4.52251965738939
C         -12.00490071174419  -19.46244488070940   -3.57518800730671
C         -12.64681931747923  -18.77847986226410   -2.51906379049365
N         -13.16939249166460  -18.29134328502299   -1.62048340379014
C         -12.22490968141828  -20.85452752541546   -3.49534334490889
N         -12.44336483465460  -21.97525661508500   -3.38183108275179
C         -10.44772429574345  -19.52190152273128   -5.55282883633100
C          -9.59438282107710  -18.56619323464506   -6.15247106977861
C          -8.78129116446140  -18.94071752486373   -7.21377339922521
C          -8.80812213444830  -20.25642010167171   -7.64588636876070
C          -9.63091800868632  -21.19699801852544   -7.03897762307139
C         -10.46039804614875  -20.83893287099583   -5.99063732303577
C          -9.76541846284653  -17.27750393638244   -5.49020262643331
C          -8.90435777152649  -16.22694567707351   -5.64239930863670
C          -7.76459632814231  -16.27300679597328   -6.48309065101410
N          -6.81757443692938  -16.22585450742111   -7.12956844879139
C          -8.86506798334394  -14.97286419573522   -5.00079368845193
N          -8.66263779380118  -13.92634615596267   -4.57332358205943
H          -2.19801729520972   -3.63426937780097    2.66301224167680
H          -1.44693004501546   -5.74374135376112    1.66349367257367
H          -2.06336357236021   -6.33997328236669   -0.63839278155122
H          -3.43404113331523   -4.81814978092626   -2.00554084491253
H          -5.61756531777461    0.32702937665734    0.92067310437617
H          -9.25545437000903    1.58115648351085   -2.46834932405264
H          -7.91749458643528   -2.78388471524450   -0.14103312789208
H          -6.57979010065630   -3.01283736836083   -1.25481260033084
H          -8.69834071154958   -4.34936172548476   -1.64165241686622
H         -10.31412820976974   -2.57001750710259   -1.27745614570361
H         -10.52940152318370   -3.22768461103118   -2.90488477318915
H         -10.62928327680045   -0.72130081796983   -2.85671835812770
H          -9.34908547824142   -1.34636663369879   -3.89793607193368
H          -6.96995483005435   -1.75029237138192   -3.71983594578317
H          -6.70311077835195   -2.94524731649241   -5.07257840677925
H          -9.88625498568785   -5.51422923383943   -3.13395805123882
H         -10.51847215276065   -8.55234387862641   -4.24600805649126
H          -6.91801162492861   -8.32075296077054   -6.44188241302641
H          -6.26552209213717   -5.27538993624386   -5.29143223776745
H          -8.09621447579982  -10.44364875219570   -6.79877667127231
H         -10.75570659893653  -10.67471062061200   -5.31173463298985
H          -9.36712140969877  -15.02671633293317   -8.61467389230188
H         -13.12108163852425  -12.49367209278789   -6.18063918483041
H         -12.10876351389118  -12.34836646436237   -4.74894991950314
H         -13.74727653103948  -14.23882047750263   -4.59542080134138
H         -13.89081417993627  -14.62914190686196   -6.98695778245591
H         -13.58275473265726  -16.14196587935785   -6.14283934888678
H         -12.24323348711802  -15.56584183403283   -8.34439046035842
H         -11.41552871490114  -16.35528368656684   -7.02081936633744
H         -11.08301178306801  -13.36991336476834   -3.20160738461701
H         -10.47819490276093  -14.99230632234752   -2.63738485069352
H         -12.79063531794708  -16.90556226799169   -3.81477110685994
H          -8.14314303219610  -18.23005864062064   -7.71082606544571
H          -8.17894017531177  -20.55185394474312   -8.47160611502755
H          -9.63207621641523  -22.21601007486336   -7.39401874051309
H         -11.11001834947214  -21.56881519423254   -5.53580513104506
