117
 SCF done       -192.754431028201          0.000939069311
C          -2.93881886418108    4.10255045926723    0.71357703753233
C          -3.27095447491530    5.19183200156228    1.50503595542814
C          -4.46048267353773    5.22337764503227    2.21896494693372
C          -5.34894075388279    4.15982992416231    2.16992330064283
C          -5.02741107299618    3.06678792632079    1.38329777684694
C          -3.82220302697782    3.03646863917655    0.64537154675583
C          -3.75908869203810    1.78952453555149   -0.10702075275355
C          -2.70102739709801    1.36264533324321   -0.86743044016831
C          -1.49298794347425    2.07529365071652   -1.01564450971913
N          -0.48455873978294    2.59873345094875   -1.18123883142038
C          -2.64672480271109    0.14787402867369   -1.58046758110185
N          -2.53479148003498   -0.82299744137692   -2.18485929777977
C          -5.03644771400927    1.11825335386533    0.08770273940595
C          -5.72567714779936    1.80992650803610    1.16869300014698
C          -6.64454482842671    1.25301683259570    2.01734130016118
C          -7.03497621817171   -0.10161613961048    1.95629359745475
N          -7.32375613266470   -1.21224863824268    1.97395021621132
C          -7.22119108046713    1.93379613668971    3.10773691543957
N          -7.72866472735963    2.44524773155710    4.00107391495743
C          -5.50471320700572    0.09537644414723   -0.69003205901013
C          -6.83769214318366   -0.31662709358602   -0.89475375773105
S          -8.21320863542897    0.74902296259591   -0.67242525953787
C          -9.27559631249549   -0.45781398475657   -1.25743206647326
C          -8.64378932576003   -1.62032816569275   -1.59463841822818
C          -7.24488777011810   -1.53816866211532   -1.41515005719283
C          -6.34348237639093   -2.68603360510474   -1.70128841292565
C          -7.00555577990912   -3.65231637266025   -2.68311802547509
C          -8.38339626940528   -4.03519612656963   -2.12391922678362
C          -9.32724078286767   -2.83607193080503   -2.12813779257803
C          -7.11014406724039   -3.12600257077768   -4.09835985627149
C          -6.63777045363523   -1.95067000733472   -4.50789318156190
C          -7.73496787480931   -4.05689286868425   -5.03321930197764
S          -7.27224783922325   -5.72529071979439   -4.92849389080021
C          -8.38014677648598   -6.18529997668781   -6.19007864328300
C          -9.03315055738583   -5.07616835732242   -6.68414236369792
C          -8.67602956422059   -3.87149541351174   -6.01777112662312
C          -9.31634083294653   -2.54612303652799   -6.36653532788032
N          -9.64706557697869   -1.77436464928979   -5.17293479592756
C         -10.60122550183253   -2.78457276891965   -7.15928189445181
C         -10.32394868043807   -3.70732996548541   -8.33246258134013
C         -10.00313722081959   -5.12467078262589   -7.83551846468560
N          -9.48093272449717   -5.98553762714248   -8.88830977971137
C          -8.46984117250571   -7.59856678937265   -6.40071613888191
C          -9.45600389087005   -8.28458225606027   -7.01008347629299
C          -9.59905267476771   -9.70779972675440   -7.03503879715647
S         -10.77848923542594  -10.37804982190312   -8.13574811292998
C         -10.47241988163448  -11.96868020350709   -7.57014104507379
C          -9.53128165765254  -11.99688754836927   -6.58622811687809
C          -9.02466282636215  -10.71090855514076   -6.28022924703488
C          -7.99182550830582  -10.49511150555295   -5.22031513033020
C          -7.77650081567676  -11.73465257302789   -4.33497211383377
C          -7.72303680650421  -12.99070739833777   -5.20180183334216
C          -9.08260001570951  -13.22309952671010   -5.85561478645039
C          -6.53282632450837  -11.52627081453006   -3.49646515946308
C          -5.39427326757987  -12.20063705341933   -3.66027172134402
C          -6.58895592802137  -10.39767548357102   -2.58271464207574
C          -6.06511056559831  -10.27882342595161   -1.34387199909380
C          -5.84632912388965   -8.98854086852434   -0.68119828452413
C          -6.49278773233315   -7.81521398095963   -0.94858621307519
C          -7.58520083760027   -7.68236791922030   -1.83425182133090
N          -8.49700144215464   -7.51048363599589   -2.51047661097885
C          -6.18433511000894   -6.57889904863728   -0.34341293201223
N          -5.97709567013611   -5.53456170340472    0.08503895527481
C          -4.81199989613128   -9.20666859436211    0.31498868032713
C          -4.54879449037082  -10.59417154333708    0.40900291146075
C          -3.59441872243299  -11.07047833475470    1.29431333983704
C          -2.90876730362187  -10.15902340008897    2.08216908978998
C          -3.17186296197042   -8.79797330473395    1.99627783809970
C          -4.12336237954279   -8.30773483843347    1.11592752561700
C          -5.42840063314241  -11.29903807296584   -0.50797433476419
C          -5.76096237955461  -12.62172674174129   -0.46073925259842
C          -5.15557805376441  -13.55372786964925    0.40912515178868
N          -4.68543900732828  -14.35124421133625    1.08652647205818
C          -6.80831280555621  -13.19574227587884   -1.21412113830513
N          -7.68593744206979  -13.70865232239935   -1.74567600578639
H          -2.01200164626542    4.09854452249842    0.16390500104276
H          -2.59201469949031    6.02899654092949    1.56167436242282
H          -4.69972669810845    6.08647650535798    2.82123628580583
H          -6.27329537034790    4.19477772884318    2.72360721364558
H          -4.78131789425193   -0.43062433212037   -1.30019572654755
H         -10.32410517674492   -0.24114889070288   -1.32079503913805
H          -6.15879370023547   -3.22468844727272   -0.76590442742196
H          -5.37142037502070   -2.35318934752452   -2.07113767997077
H          -6.39302704067549   -4.56202235282963   -2.73089532727007
H          -8.24579276260577   -4.39399296657147   -1.10189260225209
H          -8.82359096926106   -4.84525089730831   -2.70537852367590
H         -10.21285395763462   -3.05318515202092   -1.52775033476414
H          -9.66397769044989   -2.63476200533792   -3.15083002563434
H          -6.17607927904908   -1.24063867143119   -3.84612440260446
H          -6.66935690837182   -1.67002321675503   -5.54769141992776
H          -8.60983874461080   -2.00010518648171   -7.02591735907320
H          -8.80582248085581   -1.37813083320051   -4.76552649527916
H         -10.25880105670456   -1.00634921246449   -5.42960926908850
H         -10.98940695611540   -1.82584068770470   -7.51227559890769
H         -11.34472195993115   -3.23126562354380   -6.49652463837261
H          -9.47170995553671   -3.32384644527412   -8.90303784209724
H         -11.18643654190983   -3.74692196059766   -9.00208216994743
H         -10.93793648273788   -5.58440715448226   -7.48119279065227
H          -8.58292994614588   -5.64152245540762   -9.21027345834860
H         -10.11606612070785   -5.99626005422619   -9.67877150401333
H          -7.65942219574504   -8.13406151329589   -5.93171932548826
H         -10.22746969521066   -7.74455399086448   -7.53363195493325
H         -11.00871857636731  -12.79462537531919   -7.99355518054809
H          -8.30902426521981   -9.64599278000230   -4.61039403139780
H          -7.03750357331452  -10.24088492250597   -5.69631473372238
H          -8.62640707264399  -11.83143394520715   -3.64950888323628
H          -7.46693194190518  -13.85320084655083   -4.58537370748514
H          -6.96531608053382  -12.86981136068628   -5.97900531330646
H          -9.81751122050019  -13.46790078363769   -5.08234082340384
H          -9.03490168201962  -14.07168159193235   -6.54108637434264
H          -5.28685513168747  -12.98590178193097   -4.38460907840786
H          -4.51361498341409  -11.96466277258660   -3.08448107178822
H          -7.04515660101227   -9.51062265523442   -2.99981539367567
H          -3.37760195747637  -12.12401114064077    1.36644928799785
H          -2.15893886729879  -10.51491881727033    2.77186613269123
H          -2.62627863498237   -8.10872627824555    2.62226813147239
H          -4.31342849129935   -7.24840816046950    1.05709048304948
