122
 SCF done       -199.093343051033          0.000680928932
C         -10.16204305339816   -9.92513452130074    7.09678732418583
C          -9.53062051515847  -11.13005483279379    7.37113393747268
C          -8.18971283364829  -11.32219990462396    7.07235477285039
C          -7.43681276005234  -10.30890027764451    6.49774726130743
C          -8.05810406779563   -9.10468470265926    6.21543899173781
C          -9.42674570954561   -8.90847814492892    6.50962229742327
C          -9.81201366209308   -7.56442334996151    6.09153906863246
C         -11.04247123185336   -6.98658605581672    6.27906284954100
C         -12.12397212671990   -7.61616905421260    6.92796433069794
N         -13.04550146692195   -8.06613101320641    7.44491738902664
C         -11.39354622606574   -5.67979196600030    5.88618323492535
N         -11.74402037424632   -4.62450669290712    5.59538720434112
C          -8.65904512247060   -6.98753867005543    5.42349830484316
C          -7.52913844863706   -7.86530005430024    5.67315277230742
C          -6.20643006595458   -7.49285339928463    5.67350417153607
C          -5.78820054794401   -6.15399809949306    5.52705605297834
N          -5.41773619704874   -5.06795526635867    5.47694270140641
C          -5.12490503183258   -8.37147642045992    5.84664706260528
N          -4.18699377383427   -9.03331277934982    5.91179378269973
C          -8.68660914699880   -5.87734559400852    4.61175775888395
C          -7.76938312605516   -5.54275667158392    3.60184712577696
S          -6.75842702867913   -6.72939914055516    2.81490426534679
C          -5.99730289670018   -5.51438356116094    1.83532337420949
C          -6.54169244461832   -4.26294562572637    2.07737921255768
C          -7.54868268541654   -4.27999304735358    3.05435463395743
C          -8.22337881234576   -3.04901028244731    3.56006008914622
C          -7.94789992810746   -1.85180212885587    2.65468829872086
C          -6.46151008375576   -1.79026192709817    2.32308850807387
C          -6.07724710141648   -2.98394848340291    1.45156898896067
C          -4.87649536839757   -5.92061403105600    1.02589102904209
C          -4.10305798004933   -6.97550815979470    1.45933611287850
C          -2.94312187133500   -7.34504508564514    0.75879023919920
C          -1.98905765189229   -8.31539690972375    1.03552004656579
C          -2.07179214729544   -9.29757562653692    2.15492962660326
C          -1.65312099746959  -10.72637528233337    1.77302294775974
N          -2.17472851158232  -11.10296160540340    0.46171551206561
C          -1.24893574279581   -8.81286765291092    3.36833085157499
N          -1.41052668111857   -9.73440655226576    4.47517280650979
C          -0.97918774896120   -8.19451492190994    0.01116868246260
C           0.19392579293201   -8.82653084218329   -0.17578715704691
C           1.00321820820552   -8.62357264871441   -1.40551613259934
C           0.54644422800742   -7.49360217674403   -2.27922941376690
C          -0.59097668819007   -6.81654290014689   -2.04173496437705
C          -1.39839600782938   -7.13729604134253   -0.92412298576831
C          -2.58176330748514   -6.61337285779407   -0.44704886214359
C          -3.43014692397491   -5.57818844802016   -0.90508919447590
C          -4.53505326061296   -5.24294830828175   -0.19125028247999
C           0.93589578766595   -9.87817780301414   -2.25276284630184
C          -0.06534967193113  -10.75495199553077   -2.14380441167214
C          -0.24931488293892  -11.96808738421416   -2.88824848112838
S          -1.88671976397391  -12.54515146783461   -2.99635221754571
C          -1.39455753065947  -13.98236319843894   -3.86799067155124
C          -0.02053312298908  -13.96159528586792   -4.06715346632303
C           0.62079409206525  -12.84999503098732   -3.49379614971850
C           2.10907157676688  -12.83027798859633   -3.58540075898785
C           2.52617922562608  -13.05019404002854   -5.04676177060911
C           1.79802009991833  -14.23718237081949   -5.70776755394675
C           0.82658481895154  -14.96426836611288   -4.76365549268119
C          -2.29285636081553  -14.94589070081332   -4.36632542746610
C          -3.58701648694934  -15.19028741535483   -3.99064937772732
C          -4.57346151139390  -15.86016842898842   -4.82615251125953
C          -4.33860074494297  -16.64304463103380   -5.92649951186666
C          -3.06384727390022  -16.98405330841865   -6.42302925347031
N          -2.05683069102651  -17.30109115363796   -6.87666729589637
C          -5.35098364914201  -17.25293789436239   -6.69625408586288
N          -6.12133279972827  -17.77773822215905   -7.36638776272034
C          -5.88214855363638  -15.52843892474435   -4.27518511622619
C          -5.70383374915558  -14.80580887592615   -3.07327429712457
C          -6.79447054664281  -14.35221491506895   -2.35097882167835
C          -8.06600845467508  -14.62145796115210   -2.83465577845572
C          -8.24454685782997  -15.33869966826038   -4.00899337930723
C          -7.15931302637950  -15.80031430767102   -4.73939244343395
C          -4.27908492723344  -14.72478211098777   -2.79810817128340
C          -3.71355670483337  -14.52967621528613   -1.56504980993285
C          -4.41167674391378  -14.05966663816774   -0.43692708299462
N          -4.90747084164713  -13.63376562485153    0.50749117569776
C          -2.36937557030902  -14.84284650899040   -1.27214717104789
N          -1.30271096338607  -15.14586385447082   -0.97416707895782
H         -11.20432272041218   -9.79602755176002    7.33791011571071
H         -10.09653921541140  -11.93005881332161    7.82372163902902
H          -7.72383381837730  -12.27135373812993    7.28924555509458
H          -6.39542190527991  -10.46622490611389    6.26581486803782
H          -9.53298801882264   -5.20931863667208    4.70117035245080
H          -7.84166281084323   -2.84263628386307    4.56524825430189
H          -9.29919057417643   -3.22013448077308    3.65462805863544
H          -8.26659182418822   -0.93728885131131    3.15616546347522
H          -8.52259357570850   -1.94632499181024    1.73044221896590
H          -5.88239970028228   -1.81246533895821    3.24806929772618
H          -6.22554125918084   -0.86502661311392    1.79516689749021
H          -4.99558431911632   -3.01582496087380    1.30577903855927
H          -6.54702669173207   -2.87080230313589    0.46851819908355
H          -4.35766659154945   -7.48729063556785    2.37658016977421
H          -3.11914436824538   -9.34081002251855    2.47592204278679
H          -1.99054613068912  -11.38926786414198    2.58144739178567
H          -0.56497822652419  -10.80484088535683    1.72993746219893
H          -3.18794347602627  -11.02208389321401    0.46391126691112
H          -1.95918354227623  -12.08140576839117    0.29104060228117
H          -1.56208242665819   -7.78005202932534    3.60217708189657
H          -0.18938135752940   -8.78642076581364    3.09542971661562
H          -2.35965974544119   -9.69072949982112    4.83713377459944
H          -0.78858548442710   -9.48486483553668    5.23577682536047
H           0.56703552934454   -9.56357301427446    0.51808736424191
H           2.05568985918968   -8.46790600365741   -1.12966690065966
H           1.16461074141577   -7.27331788869154   -3.13610641629690
H          -0.89984239342842   -6.01433742387380   -2.69663405659688
H          -3.19213028689090   -5.06113335804780   -1.82315028843982
H          -5.19872598685130   -4.47518700221025   -0.55342441265987
H           1.71007065926953   -9.97646141115900   -2.99901776288578
H          -0.85754872184939  -10.56022835345475   -1.42744620480152
H           2.49427180258178  -13.65394999181385   -2.97655044531331
H           2.53662803871065  -11.90703066405038   -3.20259484387421
H           3.60524429609639  -13.20437038082386   -5.08013180171217
H           2.30984804899870  -12.13767711518192   -5.60532494193564
H           2.52102046173511  -14.96211421431223   -6.08165617909685
H           1.22623120511575  -13.87812741677482   -6.56497748103226
H           1.39519897862969  -15.51897323698817   -4.01142141753496
H           0.23355857786874  -15.68495370673965   -5.32636488040190
H          -1.91329278390509  -15.50695382330231   -5.21006884518772
H          -6.66420752327546  -13.79092523169307   -1.43963726481337
H          -8.92695427224767  -14.26759894700912   -2.28823491349265
H          -9.24343639480040  -15.54108426091043   -4.36421754575959
H          -7.31860709464252  -16.35470887448106   -5.64955466321276
