92
 SCF done       -173.254616650560          0.000885719666
C          -7.78062709783931    3.84242574444488   -1.43425211318361
C          -9.09390441279268    4.23926791867117   -1.63751725562680
C         -10.03506656096371    3.36224516028830   -2.15811406744054
C          -9.68812631795907    2.06292201286595   -2.49668977545306
C          -8.38029505003740    1.65393919693369   -2.29622896651475
C          -7.42176976375707    2.54371749758922   -1.75969065412359
C          -6.14902606129638    1.84595876743213   -1.63586539886105
C          -4.94781164580530    2.41074776541819   -1.30732299889889
C          -4.77136656265754    3.78203458041601   -1.02209078221490
N          -4.56124531367363    4.88303000957526   -0.77587752005912
C          -3.71476461087850    1.72580890813643   -1.25415517223353
N          -2.67710315316969    1.23746214773281   -1.20378417179356
C          -6.41653295603110    0.43890449854830   -1.92888856540481
C          -7.73071505094889    0.38077982627935   -2.56136453995451
C          -8.16819368330866   -0.56735313048662   -3.44653082854137
C          -7.41334881200725   -1.68840849311158   -3.84443974485090
N          -6.84554209463185   -2.61588411081562   -4.21285406482744
C          -9.43494116583908   -0.54118422088076   -4.06321965896228
N         -10.46340654594417   -0.59155074020650   -4.57087975742362
C          -5.62596094096816   -0.59178462757726   -1.52161391744036
C          -5.98294439876406   -1.96818325472199   -1.38559564907540
C          -5.00329360912481   -2.96369317007922   -1.42111320146452
N          -5.22454033614549   -4.25387311304258   -1.30166655254182
C          -6.46120081380540   -4.71283602800453   -1.12459673671098
C          -7.56708401545091   -3.80225793753360   -1.00902841647845
C          -7.30990292874355   -2.40849653925435   -1.10551647083549
N          -8.29308156856625   -1.52087043357596   -0.86469860583669
C          -9.49738759100204   -1.97980817425632   -0.64424290323353
C          -9.77391054410086   -3.35529505966113   -0.66066332439867
N          -8.81956394353091   -4.24283168895717   -0.80034587327238
C          -6.62222738679158   -6.12207164209156   -1.03085357601227
N          -7.84068186829970   -6.72729624091888   -0.83774392016162
C          -7.64164774405938   -8.06189426466031   -0.75015307854085
C          -8.27528677271130   -9.28125840187134   -0.55541108050410
C          -7.26409041130858  -10.25583109502433   -0.58011978010922
N          -6.04523412328116   -9.64964209692456   -0.79306508361812
C          -6.24218443430701   -8.30862635924878   -0.89825534847268
C          -5.60411153787496   -7.09334444790853   -1.07903418100227
C          -7.44388591815929  -11.64714024388235   -0.38909670767505
C          -6.45372148724537  -12.57464219322655   -0.36000063078269
C          -6.62773185039929  -13.97126345334717   -0.12970652685585
C          -7.85955778879581  -14.61749745908316    0.01320290664621
N          -8.01698025803179  -15.88665980780607    0.32380443163354
C          -6.96414863477690  -16.68184539226603    0.47836775382458
C          -5.64202867677285  -16.18475682630570    0.26494112654929
C          -5.47314560214927  -14.80515405968350   -0.01347580628735
N          -4.23798040300929  -14.28748447958021   -0.16629280330142
C          -3.22514828917409  -15.10388990086571   -0.04267944018639
C          -3.39816448538589  -16.48038133590096    0.20784109305582
N          -4.58297992027070  -17.00928698433818    0.35200462255797
C          -7.13498893520176  -18.06705258939666    0.79142424608266
C          -8.25767806615412  -18.69121925387454    1.23787007833012
C          -8.48571814199284  -20.13292857081291    1.14664490699981
C          -7.53913710762175  -21.11133335223557    1.02204576559040
C          -6.14141208940035  -20.90562105852231    1.02381466991011
N          -4.99591916559881  -20.83523140825409    1.03306673153919
C          -7.83662437958611  -22.48807303002057    0.92423861909088
N          -8.01014639536320  -23.61916035482335    0.83694637611098
C          -9.92687543418484  -20.33100550995406    1.21925057109196
C         -10.54418219141170  -19.09630381636295    1.52662115466546
C         -11.92191405396617  -19.00474107170432    1.63940994113940
C         -12.67962818430371  -20.14960320720994    1.44576467222009
C         -12.07523951917337  -21.36428697325128    1.15199763841914
C         -10.69745738059430  -21.46909221987002    1.03623692846868
C          -9.50655975483134  -18.09426749563089    1.70739710845986
C          -9.63067161595676  -16.93068996611951    2.40993894194221
C         -10.85745587277441  -16.42582992754161    2.88819541073362
N         -11.82958063315051  -15.95702970563490    3.27887722218071
C          -8.53659784704145  -16.14424364673138    2.83290462330805
N          -7.69127372515684  -15.50959534679354    3.27987418376571
H          -7.06491387783196    4.53524077944791   -1.02308200579954
H          -9.38662864983596    5.24610606093444   -1.38166981159145
H         -11.05258164923763    3.69323045635553   -2.30035900461601
H         -10.42850863456305    1.38786029572740   -2.89465345606316
H          -4.62405305930869   -0.35571639852370   -1.18723947409213
H          -3.96982641292756   -2.68857201396112   -1.58914753322284
H         -10.26578381002360   -1.24705426951804   -0.43868381162633
H         -10.77640489906020   -3.73557402607362   -0.52407180353535
H          -8.69309476597567   -6.18425398097448   -0.77314598606321
H          -9.31815877435547   -9.47515408424196   -0.40552543159115
H          -5.16565594832395  -10.13232059727022   -0.84967236901930
H          -4.56612217274456   -6.87708525610854   -1.22222073267294
H          -8.46955673903693  -11.94920927642493   -0.23516056883091
H          -5.42162860839568  -12.27959103863101   -0.49014984722458
H          -8.78593833873274  -14.07381362128451   -0.11289228286385
H          -2.23977275555485  -14.67343129734000   -0.16090554471912
H          -2.55549204567589  -17.15390242411966    0.27773285572325
H          -6.26290091704690  -18.66456773962680    0.56130460159105
H         -12.40107927402187  -18.06477427920501    1.86052407043054
H         -13.75462341093077  -20.09318030184984    1.52403344546128
H         -12.68526933897893  -22.24280924542987    1.00730720097857
H         -10.24613028246106  -22.41920586532264    0.80210141653145
