112
 SCF done       -184.589868259913          0.000661899078
C          -6.55091487512955   -4.02604901729879    8.22302991733485
C          -5.72659976845664   -4.22281872739914    9.32074533551824
C          -4.34491819108561   -4.21681580574714    9.19004501610302
C          -3.74672950975639   -4.00841710632453    7.95669362219862
C          -4.55940055562999   -3.81634116089692    6.85167536452789
C          -5.96785137902730   -3.82693359047415    6.98138229052926
C          -6.56643433560049   -3.61022530864691    5.67056786843878
C          -7.89589109044930   -3.42869598760183    5.40603246895378
C          -8.90824803830879   -3.43910399641477    6.38898129783162
N          -9.77734423641696   -3.43719142067784    7.13857910177449
C          -8.43402422435161   -3.16131807077040    4.12873020208965
N          -8.93704046735293   -2.93225133340273    3.12242466947451
C          -5.47042057799669   -3.61738274423958    4.70692598467058
C          -4.23181862171179   -3.52505415912144    5.46610821517216
C          -3.04222352121743   -3.03289618281886    4.99657763711512
C          -2.93893451205564   -2.36418329883944    3.75582460619436
N          -2.86261572210757   -1.74402998952287    2.79366439959621
C          -1.84578883738308   -3.05194209197433    5.73527927370329
N          -0.82962953251818   -3.10673074316056    6.26909487846740
C          -5.59742970860447   -3.88902176582931    3.37617007395944
C          -4.55185190917450   -4.28401348339339    2.49402460003009
C          -4.74513223737176   -4.40816220464042    1.19356522471538
C          -4.89822533409819   -4.47793520626426   -0.08470319968079
C          -4.57361875181531   -3.34052042633255   -1.04723078992474
C          -4.75088686559942   -4.01263474051324   -2.36365408848746
C          -5.18190950860752   -5.27973862421517   -2.26308679316407
C          -5.38432900261520   -5.70558654641419   -0.84712859014791
C          -5.26631533585710   -5.88182259046959   -3.58576711680790
C          -4.88220390393666   -4.93295958085187   -4.47764240846343
C          -4.54158793985048   -3.64465344651100   -3.79013480836641
C          -5.58373597374471   -7.25076182269058   -3.89482729922912
C          -6.19103197127299   -8.12444883251622   -3.07795256572862
C          -6.33393767735231   -9.52475084563211   -3.39911499120753
S          -7.84582862137753  -10.34253962294617   -3.13778177191445
C          -7.22579170110992  -11.78451998913997   -3.84454946747007
C          -5.93675780017782  -11.66331024095216   -4.25194795600154
C          -5.13998570289912  -12.76026142305037   -4.87593897749329
C          -5.40573652458204  -10.36516303093840   -3.98060507773377
C          -4.02204674662130   -9.99418672444260   -4.20788005574071
C          -3.32878284028692   -9.25372682774060   -3.32633300697471
C          -2.02462384736854   -8.68521434169921   -3.48745531363982
C          -1.16895222913972   -8.84266023781385   -4.51440082507091
C           0.05380718864704   -8.07569286498418   -4.62290662402137
C           0.26914938323177   -7.00123212986882   -3.90208901320027
C           0.32874094934739   -5.93044069027017   -3.17572457438737
C          -0.17706775571827   -4.56114614800523   -3.62337457527147
C           0.16343735362931   -3.71780066663254   -2.44750715788593
C           0.74458028018150   -4.40287999772801   -1.44890520833082
C           0.91071766405025   -5.85083099565502   -1.76700275868020
C           1.07938762548150   -3.49240363691410   -0.36450634797448
C           0.68514501906942   -2.24397588552681   -0.74873512449239
C           0.04830356373480   -2.27477557470131   -2.09989296173882
C           1.67480410908604   -3.79056699373895    0.90062270224612
C           1.85848976297657   -5.03147894904480    1.40544839346614
C           2.46908603051756   -5.35626885865036    2.65087918376429
C           2.61710500723469   -4.60406116148451    3.77949388751198
C           3.58638049704158   -4.90230127007824    4.83199599890605
C           4.16501105140236   -6.11093846133682    5.10848206333132
C           3.87534498986573   -7.32548590207471    4.45015430084971
N           3.68603143401727   -8.35275627429525    3.97287052451531
C           5.10628729867571   -6.32148012288571    6.13880266113680
N           5.87692198098131   -6.56413675891693    6.95408828644612
C           3.81425979643986   -3.65819585520712    5.55371057997070
C           2.89904028883387   -2.68452538726872    5.09122472314001
C           2.90361480464274   -1.40366629802696    5.61899558289671
C           3.82920860705853   -1.09821716913182    6.60466144050936
C           4.72781054218150   -2.05264395077906    7.06132839852995
C           4.72918682352150   -3.33946841642495    6.54519008652711
C           2.03226684300980   -3.30553347791263    4.10486301542303
C           0.78702079279713   -2.86807047537358    3.74450314476196
C           0.29348729807804   -1.58144130912009    4.04268711405183
N          -0.11824421145740   -0.52395414564433    4.21336863843225
C          -0.15373316729689   -3.69703638134634    3.10280107397406
N          -0.97933736083792   -4.36862167573594    2.67144464149331
H          -7.62178895411914   -4.03406412465952    8.34344170308174
H          -6.17000364906252   -4.38404616067780   10.29142967843377
H          -3.72521681868157   -4.37574216286704   10.05933245166474
H          -2.67244081777051   -4.00758576133699    7.86471140264904
H          -6.59165381209440   -3.89924935840530    2.95041712257072
H          -3.57550586360724   -4.53046264135848    2.89422018195497
H          -3.55892049088996   -2.97052219529824   -0.88009609166898
H          -5.26008442524611   -2.50111500676706   -0.90267141992032
H          -4.80498362389548   -6.59249414087067   -0.58140208306291
H          -6.43494640193855   -5.90394845477288   -0.61648539427937
H          -4.82856397707287   -5.05224647381332   -5.54438114972919
H          -5.19869448497128   -2.83284695003679   -4.11139172836540
H          -3.51706870289803   -3.32933080895601   -4.00188131378370
H          -5.24718716159844   -7.59187645053180   -4.86559028643483
H          -6.63191719874294   -7.79628816885493   -2.14661832553256
H          -7.86111038302632  -12.64556125099116   -3.91347245851154
H          -5.72689775669900  -13.67327131289453   -4.93295331994104
H          -4.24174982383902  -12.95304586813066   -4.29052767235372
H          -4.83243362556546  -12.47959087482435   -5.88314141271133
H          -3.56471551166766  -10.35316891508909   -5.11956874875160
H          -3.82700604088085   -8.98621758343261   -2.40303229105065
H          -1.72534789790326   -8.00381321412262   -2.70021141178010
H          -1.37226879761676   -9.54356664733168   -5.31103566121254
H           0.78750514106301   -8.40158919494700   -5.34960690327638
H          -1.25268551529779   -4.59553569862981   -3.82334841297072
H           0.31852842169659   -4.22809049469988   -4.53972629572666
H           0.34979242676996   -6.49762862071655   -1.08619235808067
H           1.95716134662423   -6.16756473591838   -1.74966098510036
H           0.77187405585888   -1.34537250947935   -0.16474580428746
H           0.56932509826537   -1.62486696955832   -2.80708580333387
H          -0.98771195535869   -1.93004622613130   -2.05568682356249
H           1.99823292428740   -2.92423994192522    1.46460513609568
H           1.59965316715736   -5.88131091710914    0.79052903792083
H           2.93379448800845   -6.33443288070945    2.66508765567975
H           2.21133003111176   -0.65473648786418    5.27075788883564
H           3.84921715612398   -0.10307011070791    7.02204686298756
H           5.43845383472408   -1.79209916735479    7.83081686931411
H           5.43402123713609   -4.06760034406272    6.91167912366460
