150
 SCF done       -235.147558907009          0.000567375554
C          -3.24024562726778    2.14781983255269    4.70479873474829
C          -3.37482029275528    2.51073579527826    6.03700882196075
C          -3.88035611720701    1.62245059125048    6.97525922779375
C          -4.25878619320732    0.33935100699573    6.60923260042949
C          -4.13043985128213   -0.03248358481976    5.28210470555502
C          -3.62487184625085    0.87293115299547    4.32156477793747
C          -3.62202479651188    0.22251331847476    3.01596700327506
C          -3.09438264829499    0.73721303841617    1.85980928690520
C          -2.46813135966622    1.99786234643987    1.77301645348025
N          -1.94983779280306    3.01286550928401    1.63354588447194
C          -3.06060169536109    0.08050975890854    0.61194886839603
N          -2.99114265546878   -0.39127380325663   -0.43354296430720
C          -4.28897234656314   -1.05923218241568    3.18700399779758
C          -4.40216331387426   -1.29669271767690    4.61727083019889
C          -4.44099123535515   -2.52421579899801    5.22650831754953
C          -4.34415516924900   -3.73724020511760    4.51580120151691
N          -4.19723425154400   -4.73523300676799    3.96671230603724
C          -4.46633947975281   -2.71323507587140    6.62178896467598
N          -4.50354150022930   -2.92696615746643    7.74917063189159
C          -4.79423081740158   -1.80697118046428    2.15569961326156
C          -5.81109828018095   -2.77986449553494    2.17916381154256
C          -6.09092001538463   -3.64294084082727    1.10656366556774
C          -7.26802510585501   -4.38056101774142    1.34223603549555
C          -7.80166391200990   -4.12844991164116    2.58312047760438
S          -6.99098461745154   -2.91584239112418    3.46916158802602
C          -8.81792023815371   -5.10867250900957    2.99095415733404
C          -8.68563926910603   -6.19542694010706    1.89901427901800
C          -8.08341641816348   -5.45649376356242    0.65200735737501
C          -9.21876885494404   -4.79093916233089   -0.15997200478886
C          -8.80342919443563   -3.69371852045414   -1.12899873445871
C          -7.18884548927381   -6.37263434559793   -0.19319157382257
C          -7.86791567305318   -7.62643029776866   -0.73145243762102
C         -10.03952235273070   -6.90674628210818    1.74312971988573
C         -11.05183480596224   -6.29069758871423    2.71047112477525
S         -10.57281318628756   -4.55654159450587    2.96905952316538
C          -5.06064597591289   -3.83583414046242    0.08275463257391
C          -5.28818497225874   -3.74144346070395   -1.26459591753010
C          -4.23669276073473   -3.96343985669069   -2.18153289645720
C          -4.21352439522025   -3.99040932990987   -3.56980190952106
C          -5.32099976673555   -3.76364507210709   -4.54460518707710
C          -6.36008478763491   -4.89930909919509   -4.48177121457488
N          -7.07992251743168   -4.96489955742630   -5.73743983945447
C          -5.96504668780236   -2.37890310470026   -4.35733761819333
N          -6.82231748269143   -2.05513973811328   -5.49058845305913
C          -2.86927704184463   -4.35086040507605   -3.95341538437354
C          -2.33182817170257   -4.62269884235812   -5.15844835619299
C          -0.92924863897580   -5.09008592872743   -5.29129303577030
C          -0.11624416569808   -4.98325261328307   -4.03682610672983
C          -0.67289993767930   -4.73209774120005   -2.83681568927856
C          -2.05905055932637   -4.47061041819252   -2.73632956023215
C          -2.90665051043019   -4.25549133556625   -1.66532953328579
C          -2.69760608717854   -4.31760791349286   -0.27180750454529
C          -3.74398662407726   -4.12428086422083    0.57095674706512
C          -0.23497565481023   -4.48567337093985   -6.48283240053279
C           0.75983431033813   -5.09950463401477   -7.12232918811542
C           1.41388099027433   -4.60644433651395   -8.30057380103400
C           2.55345422062659   -5.14282773544514   -8.87398962334290
C           2.84899710199399   -4.53327662512541  -10.11569814945253
C           1.95267348078292   -3.53760112068565  -10.42709280212574
S           0.76309150352222   -3.28473381165776   -9.22901227689479
C           2.24919733174284   -2.97855178388157  -11.76555096790599
C           2.93022333047442   -4.19722259498454  -12.40275941499097
C           3.80456585075431   -4.79489427793231  -11.27151912451124
C           5.12102109376300   -3.99894996601766  -11.16551654648615
C           5.85050107470432   -4.14852798963425   -9.84010955809276
C           4.10615194758300   -6.29023603517323  -11.45100154429682
C           2.88429796213809   -7.16964476320253  -11.70427004809501
C           3.40340442879404   -3.71728403854243  -13.76096702352308
C           2.15094570257202   -3.07596522732954  -14.37600994760241
S           1.01294164036329   -2.51962394339882  -13.02250756151676
C           3.16888880944604   -6.34529596209323   -8.31185953880012
C           4.21610885836771   -6.50630321745669   -7.48491114094063
C           4.74965170549191   -7.84442586398206   -7.17154464719826
C           4.00662471719284   -8.98534248506508   -7.05592456386626
C           2.59618749511972   -8.99690268811269   -7.11748528857090
N           1.44856717444061   -9.02866213948543   -7.10576107023695
C           4.55311558758724  -10.25295150626074   -6.76567293917886
N           4.95452117338147  -11.30477774996819   -6.54434575372245
C           6.16348305300513   -7.67832693573057   -6.91865920207128
C           6.44368449314144   -6.29332296022690   -6.81766120334189
C           7.74107579731073   -5.85982097426904   -6.58528549150300
C           8.74203809035825   -6.80686950933427   -6.44600684289172
C           8.46299967288056   -8.16648575652011   -6.53019707560071
C           7.17533658989951   -8.61627235822763   -6.76684877441005
C           5.20670851668201   -5.54691231234657   -6.97715572136041
C           5.00281252257388   -4.25573399647658   -6.58537923486743
C           6.02850887990907   -3.42163988748804   -6.08501839314268
N           6.81789755736484   -2.69232061631279   -5.68363403870533
C           3.75975875889550   -3.59262304320270   -6.53753124635576
N           2.78912863720074   -2.99285979221107   -6.42042747829720
H          -2.84800243359049    2.85317415353592    3.99083729262430
H          -3.08301423158199    3.50325641895905    6.34487904816812
H          -3.98201929318089    1.93172264216556    8.00431249455061
H          -4.65574716888405   -0.34335077729673    7.34325812171855
H          -4.43546910104697   -1.57799882887572    1.15998218232900
H          -8.64254152174444   -5.48782189256173    4.00117001675748
H          -7.92646635960061   -6.90616069753206    2.23950736223374
H          -9.92495304094019   -4.35640614210752    0.54898045286138
H          -9.74242792952589   -5.55679573803193   -0.73278423309869
H          -8.22365185098125   -2.92294334915376   -0.62603853145970
H          -9.69506825908382   -3.22750027114206   -1.54388712041934
H          -8.22965469230693   -4.10146371129643   -1.95737380814075
H          -6.33335708765807   -6.66969668874341    0.41937798403691
H          -6.79497318565888   -5.79757308167103   -1.03165570113224
H          -8.23809926649564   -8.25332395675108    0.07508979032497
H          -7.14920942877822   -8.20440175810504   -1.30770166966741
H          -8.69837539786432   -7.37917535598292   -1.38772047851930
H          -9.94188520223321   -7.97039426662168    1.96531480403147
H         -10.41081104286645   -6.81577305896115    0.72609159086773
H         -11.02734925517059   -6.78246522556667    3.68416625996358
H         -12.06923794877392   -6.30837463244539    2.32730415687715
H          -6.26063720158324   -3.46782406406767   -1.63088008122878
H          -4.90336994565820   -3.79328487623944   -5.55581829538084
H          -7.01159140741661   -4.74237293894000   -3.60601383151583
H          -5.83971152282836   -5.85339400950975   -4.33815070973206
H          -7.49307319514703   -4.05444956975852   -5.92373752171049
H          -7.82076829079134   -5.65571106851074   -5.69039092667519
H          -5.15920633585016   -1.64278419682492   -4.20133501821486
H          -6.59554748147628   -2.37105517863332   -3.46554787178434
H          -6.26475679170486   -1.98230372904004   -6.33636177782068
H          -7.27184637369415   -1.15767384779338   -5.34183940274165
H          -2.90754278040660   -4.56258021997402   -6.07213521189995
H          -1.00320569376382   -6.17441630559444   -5.49886080064512
H           0.94188943610902   -5.16399894036334   -4.14417652524704
H          -0.06789552689571   -4.70799612089018   -1.94219975982403
H          -1.71306001987743   -4.53704676472487    0.11312161730999
H          -3.60931948844843   -4.21447761430592    1.63849407064400
H          -0.56496066842139   -3.50663644000575   -6.79652825873380
H           1.11069788043865   -6.06629900944545   -6.77775489046693
H           2.91479215062035   -2.11148415234405  -11.68032880525609
H           2.12507281143275   -4.91743305208530  -12.58385146657413
H           4.90876344484079   -2.93807568680995  -11.30582737544978
H           5.77361455810275   -4.31705348351878  -11.98162585867464
H           5.24034332266521   -3.73575706860339   -9.04185472913159
H           6.79000055832440   -3.60102632566556   -9.86709616262609
H           6.07279473211747   -5.19002711094535   -9.61835131637729
H           4.60663054501196   -6.63903137904833  -10.54436220324702
H           4.80879145378927   -6.41077009009207  -12.27861939842022
H           2.07320610990589   -6.92250465651546  -11.02323226297149
H           3.14704798001413   -8.21551548082157  -11.56009361189676
H           2.52249667621233   -7.05986774440164  -12.72334172727433
H           3.75883395279989   -4.53136067076090  -14.39219663052810
H           4.19961712221389   -2.97858035840442  -13.66139950432300
H           1.58425348010447   -3.79177246248885  -14.96957075603961
H           2.38303468579636   -2.20993343993313  -14.99239376528037
H           2.67568438208296   -7.25671983058644   -8.63912838892171
H           7.97584647540086   -4.80980422583156   -6.52583902333958
H           9.75590355893432   -6.48164872407269   -6.26992957456168
H           9.26199345222906   -8.88263528365166   -6.41474297559547
H           6.96953073366008   -9.67201520993407   -6.84125908807465
