94
 SCF done       -175.851214693657          0.000450714201
C          -6.23336705698486    2.48375423538034    2.55088889262180
C          -6.72179680184086    2.61925736946712    1.25983725983711
C          -7.25852345804634    1.53537683715814    0.57968450455741
C          -7.33235818602647    0.28495925926839    1.17548226976152
C          -6.84932053303336    0.13739396580146    2.46462666480761
C          -6.29028377118337    1.23761299082542    3.15518471384606
C          -5.84256157848550    0.79333399580221    4.46899144100448
C          -5.33715885785796    1.59358553466981    5.46276617714427
C          -5.17779735895871    2.99030929303064    5.35488906639078
N          -5.02187630597709    4.12782873044138    5.33981801841430
C          -4.94251764368401    1.14410220847244    6.73809463062807
N          -4.60712113692474    0.83728767141833    7.79380116683663
C          -6.02515708536331   -0.64822986241789    4.50664708452244
C          -6.83448586243216   -1.01547529237554    3.35122692849265
C          -7.65545817580804   -2.10484629350032    3.26036470908252
C          -7.87487832046140   -3.00768637257830    4.32242679051173
N          -8.17037746283882   -3.69855120814251    5.19070507805416
C          -8.48724715353455   -2.37136412566886    2.15423125277856
N          -9.18248833205977   -2.63234725365995    1.27894032377246
C          -5.43350387284373   -1.49394213507803    5.40478990832486
C          -5.24641807440818   -2.88015709771501    5.24837727044893
N          -4.87355316533832   -3.67370933028799    6.34865048821734
C          -4.75597034010180   -4.91242793784798    5.86170063755594
N          -4.50359342888948   -6.19868020074976    6.14509524565235
C          -4.60119580055712   -6.87161110698003    4.90819782755684
N          -4.88836102048087   -6.06342543095133    3.90982327263283
C          -5.00663477749942   -4.83828030542085    4.46157984721596
N          -5.31230298587312   -3.58071840022453    4.12271516668692
C          -4.42980900324862   -8.27658391942003    4.83251165435996
C          -4.43196380875679   -8.95107470387327    3.65460181823232
C          -4.33208827635472  -10.35457257099063    3.50187495207539
N          -4.37061849952229  -11.24177038775904    4.56176957524806
C          -4.28593776739747  -12.50421412853968    4.07123722679481
C          -4.28216267505296  -13.84695964362337    4.42936710373970
C          -4.14209651794906  -14.56666308735847    3.23517673694310
N          -4.06149878280049  -13.68238928690562    2.17833612006969
C          -4.15876576089377  -12.41626544257683    2.65990715634420
C          -4.19714118541690  -11.07124801037538    2.30561469386990
C          -4.07692480505100  -15.96700700590587    3.02622404615628
C          -4.27068834287355  -16.90383196825508    3.98601939125617
C          -4.17299921531533  -18.29570395548481    3.73486620656500
N          -4.46416464530438  -19.22872166803108    4.75185373084643
C          -4.26065688525602  -20.42978016468876    4.18973177293500
N          -4.28585219530517  -21.75587411493507    4.36993897990594
C          -3.85611425777980  -22.29990087106063    3.14386233620159
N          -3.60018500315184  -21.36611813789135    2.23930722908842
C          -3.84433521085030  -20.19742037030094    2.84901201515960
N          -3.81149654509147  -18.86921555800529    2.60644754990083
C          -3.71370961084055  -23.69029048639021    2.97498705338619
C          -3.10442441113663  -24.24335588635672    1.88847539670880
C          -2.96702414285011  -25.63224315020702    1.72261129944429
C          -2.16794499467134  -26.25234178791198    0.79338885590241
C          -2.31549011813028  -27.62044774665046    0.32687526077285
C          -3.03106387929595  -28.62848722289125    0.92090451864194
C          -3.72703824422477  -28.52076004932109    2.14201168723107
N          -4.30917227796050  -28.50953862291404    3.13251987778736
C          -3.13515697822122  -29.93722000720893    0.40637361288587
N          -3.26392094288117  -31.02016889018048    0.04697583242217
C          -1.55643684159358  -27.72512237908795   -0.91399426574051
C          -0.86570914428834  -26.51095705912627   -1.13196692706666
C          -0.07979963522808  -26.33826682592293   -2.25842402027611
C           0.01475618052922  -27.38280359295482   -3.16651345602432
C          -0.65419236715274  -28.57848178614349   -2.95002190591447
C          -1.44407331591030  -28.76336663233434   -1.82460522191589
C          -1.12039413174444  -25.63236331887509    0.00030705933557
C          -0.34385348670037  -24.56901901221434    0.38393129328305
C           0.68872737695548  -24.02776035596703   -0.40862329068812
N           1.52823166225716  -23.54087710149622   -1.02199211043269
C          -0.37608807919741  -23.99682394152865    1.67396453461122
N          -0.29391068702082  -23.56159009464325    2.73310974841570
H          -5.81651495024540    3.33593527893950    3.06218922514560
H          -6.67887064487366    3.58431067819981    0.77826214489232
H          -7.62451401582322    1.66485468442977   -0.42744694262075
H          -7.74589027535352   -0.55263545478729    0.63763267646408
H          -4.98862399807644   -1.07223961554190    6.29525300685627
H          -4.82001952319385   -3.35098948751291    7.30139364418000
H          -4.29918039641392   -6.62322913670824    7.03432562136256
H          -4.29803352356007   -8.78728388864563    5.77733513028394
H          -4.52257774361197   -8.36856146584087    2.75020122557006
H          -4.51163045925056  -10.98251724582267    5.52146273262308
H          -4.35634570474705  -14.26695280981468    5.41157486781686
H          -3.96283625137089  -13.95778265711184    1.21619916517908
H          -4.13210585427029  -10.63521904832411    1.32947676613163
H          -3.86270337483938  -16.31736819629610    2.02632256241608
H          -4.51491481323003  -16.61258908643683    4.99737408709234
H          -4.75871449680736  -19.00497687287875    5.68772700170253
H          -4.49803234841611  -22.28455097554748    5.20000125524703
H          -4.05149187767878  -24.32494071637067    3.78387140811054
H          -2.73692366447640  -23.56586775799273    1.13158308828761
H          -3.60065257412476  -26.25365897340460    2.34076181138823
H           0.44115766107790  -25.41186728537733   -2.43850612460116
H           0.61826970400364  -27.26051331415475   -4.05295863248951
H          -0.56322178876094  -29.37935865836669   -3.66789808589535
H          -1.95816308552333  -29.69845678632680   -1.67442940107384
