104
 SCF done       -188.402662596996          0.000607557321
C          -4.27097918681834    3.32881659371757   -6.02062355096828
C          -5.45344214275571    3.35430403014040   -6.74582900982220
C          -6.68355969547061    3.28690590943514   -6.11031168049981
C          -6.76681681079075    3.13263206186122   -4.73447334621422
C          -5.59306311043880    3.05271603539576   -4.00628578105028
C          -4.34100489536916    3.19527525674095   -4.64495249124271
C          -3.29492075466582    3.14964350760316   -3.63081915498394
C          -1.98360678013760    3.49435926289949   -3.83030563654232
C          -1.47535796529381    3.90337745288832   -5.08073970480455
N          -1.02308560888941    4.23865619463931   -6.08105064053359
C          -1.00039574890660    3.55823555827403   -2.82171297227051
N          -0.16414082797123    3.64263540025582   -2.03894494867186
C          -3.93059380711106    2.71412097973327   -2.39231749343862
C          -5.36391103156065    2.84280585350428   -2.58569587924886
C          -6.32133974565582    2.88320650526245   -1.60465192010218
C          -6.03169373869790    2.93121459034261   -0.22695745796093
N          -5.84784157587311    3.02819843904509    0.90184667562933
C          -7.70570298698559    2.92912189043042   -1.85761249266318
N          -8.84389840576250    2.90030282738954   -2.00533070605110
C          -3.23297417051045    2.18522845564415   -1.33073091211321
C          -3.65298572165825    1.35819880152773   -0.25412264854701
C          -2.91970289783327    1.46909951771144    0.99275736153836
C          -1.84609732955710    2.22993881865095    1.29177935266017
S          -1.40750790809749    2.15540886082477    3.05615388898966
F          -0.82693337831674    1.81177825779692    4.80642722054524
C          -2.61480180410722    0.89425647877366    3.25956453780250
C          -3.34980270603555    0.68192720306453    2.14598715457080
C          -4.45210129790394   -0.21463782143758    2.01131479689564
C          -5.07622397896027   -0.33676703216046    0.82000349784682
C          -4.68388075045163    0.41048611241415   -0.33535762964007
C          -5.30539808079559    0.13889826079272   -1.59355456763462
C          -6.59365854729502   -0.23389591496271   -1.80291064189302
C          -7.18787287949378   -0.24312435906874   -3.09156304115189
N          -6.45147157550949   -0.16244018925551   -4.25894522533531
C          -7.30105647433385    0.09703738472945   -5.28515629679618
C          -7.34948335676095    0.44056668546062   -6.63020391256687
C          -8.69081333953423    0.74135228709351   -6.90150449477956
N          -9.44694843944496    0.52893811085191   -5.76824167539283
C          -8.61573897161856    0.16841496800918   -4.75469229871383
C          -8.54736899294108   -0.07102919249735   -3.38647915087091
C          -9.25909252444587    1.32680590715269   -8.06842030111075
C          -8.52646797851706    1.93722850845254   -9.02734817874522
C          -9.07004814142607    2.64684561072996  -10.15914748870769
C         -10.18506418436446    2.09241574499947  -10.88721965687812
C         -10.76711450467537    0.87804058077153  -10.76360197925907
S         -12.22596100258979    0.69373973825255  -11.83844361057964
F         -13.52570271641033    0.43302276268024  -13.15850358932003
C         -11.79144230271691    2.21377017571412  -12.61023019623658
C         -10.76105826862477    2.84139411303323  -12.00380389703710
C         -10.17514901347864    4.09004470877456  -12.37388565024552
C          -9.08993296970908    4.54348417770991  -11.71310913526573
C          -8.51716746049495    3.84958745599661  -10.59266575928863
C          -7.46334506525075    4.48563968481600   -9.85091094215481
C          -6.60157473878992    5.41293405088466  -10.34198870999103
C          -5.53510932300917    6.03940345827898   -9.64529476429412
C          -5.35197942007128    6.32361769124779   -8.31736301786561
C          -4.04523876177049    6.65171906431537   -7.74396225148345
C          -2.89435209580801    6.97963271253011   -8.40680879200041
C          -2.72567861930353    7.06187047697478   -9.80613223250700
N          -2.49586964041399    7.15374548516742  -10.92763799935289
C          -1.69074221094136    7.35663655443267   -7.76736705624847
N          -0.69244384490733    7.71218109849002   -7.32851066590874
C          -4.18475093631851    6.57505522158624   -6.29650646546004
C          -5.54152063062283    6.34691042154231   -5.97890454041518
C          -5.94290274142012    6.23332493591257   -4.65717666212565
C          -4.98351655188277    6.32752027030564   -3.66068050629557
C          -3.64911939989424    6.54444888875701   -3.97280863512098
C          -3.23702591314568    6.67713978435014   -5.28996415232516
C          -6.30758624582651    6.31142033693929   -7.21746502469783
C          -7.66742654289726    6.46396230256645   -7.30112701223880
C          -8.53764994326107    6.39843592096807   -6.19394381435762
N          -9.30689924276421    6.29596306218535   -5.34776818936209
C          -8.37663253589692    6.75191873778682   -8.48349202362088
N          -9.01357463913541    7.03792805093828   -9.39474570954437
H          -3.32521566138155    3.40186355263833   -6.53158186216601
H          -5.40001846508484    3.43816720185850   -7.82169020421242
H          -7.59716625631815    3.34799339052031   -6.68185922012109
H          -7.72994790396131    3.06579548724281   -4.25753274672633
H          -2.17328266252680    2.40362492004785   -1.31874106133454
H          -1.34982839053831    2.93495377893773    0.65204858982105
H          -0.30426886172669    1.43277363864402    2.77206786043589
H          -2.73562257992233    0.47124826562673    4.23621201272455
H          -4.75882302250599   -0.79168085300935    2.86967888382965
H          -5.88591077618895   -1.04069521004254    0.70134771358985
H          -4.69578395617189    0.36335387527839   -2.46069891295107
H          -7.26854442597655   -0.37103899093250   -0.97077837331134
H          -5.46160051903465   -0.31787580077236   -4.33013455711255
H          -6.54005866059113    0.47833227798303   -7.33029267177295
H         -10.42985237087202    0.72894079770000   -5.69050392912739
H          -9.34100454993016   -0.06184232450700   -2.66771028117781
H         -10.33910786665146    1.38264260593767   -8.10433555006131
H          -7.45149746654640    1.95338194084350   -8.91539398952479
H         -10.52176468669458    0.12196781098640  -10.04237492320993
H         -11.56087270178161   -0.19226796064148  -12.60660298235700
H         -12.39858115619661    2.54761503585444  -13.42673005203739
H         -10.61605531722855    4.64958984748325  -13.18351443564764
H          -8.66801249494988    5.49958261847645  -11.97674098213544
H          -7.34593872054324    4.16932638775213   -8.82388464953450
H          -6.62383338911780    5.62918682340925  -11.40185561792242
H          -4.70359871756497    6.29498010994476  -10.29037338878028
H          -6.97503773541755    6.06586109943575   -4.39657009108370
H          -5.28281550950888    6.23438254692098   -2.62705368292763
H          -2.91959013586698    6.61947850190992   -3.17996242349535
H          -2.19784750774511    6.84949688542639   -5.51471698570622
