113
 SCF done       -199.792807582728          0.000953357331
C         -13.31945816167116   -0.94038535071895   -1.31754663263118
C         -14.05507715582574   -1.81435985268763   -2.10287670348983
C         -13.77682805927994   -3.17465822971203   -2.11438747898215
C         -12.75820454026119   -3.70233130005451   -1.33592114747680
C         -12.01455966240996   -2.83966863702847   -0.54646485674266
C         -12.29234181610913   -1.45249179305438   -0.53968683994841
C         -11.36096004656812   -0.79063384091028    0.35984506178728
C         -11.42918530493850    0.49891558735595    0.80466270939267
C         -12.41870240800398    1.42190009991254    0.40274607602353
N         -13.19235494108104    2.21562215627788    0.10620973396401
C         -10.56278637203873    1.05237266028315    1.77283894100834
N          -9.90639229881950    1.53864166196796    2.57923392407920
C         -10.36211678452263   -1.79357766286711    0.73744371670564
C         -10.92263075489992   -3.09877990981334    0.37816822627816
C         -10.62170786927615   -4.29787190903782    0.95862181642683
C          -9.73716541040522   -4.44562819290864    2.05012084488916
N          -9.08746200944319   -4.61882040003906    2.97948768160749
C         -11.21667699235120   -5.52085082696266    0.58439121229647
N         -11.65289013777258   -6.54225571303521    0.29589482438467
C          -9.11078486638661   -1.50178212950851    1.16311151177739
C          -7.98189504302073   -2.40468398135651    1.23524071267562
C          -7.78385367077234   -3.32382317565404    0.22033811640230
C          -6.67814209673430   -4.17954489428549    0.22787733709651
C          -5.78625558174463   -4.10449836503870    1.29055913264483
C          -5.93413442208219   -3.18110487560377    2.32663425869631
C          -7.04963215852933   -2.30575108814851    2.30274291231269
C          -7.25041326517707   -1.39621561090576    3.37404559995126
C          -6.36758109385093   -1.32191179916990    4.39896545738116
C          -5.21920924911559   -2.15749012458141    4.45039956721357
C          -4.99138508608052   -3.09812266830249    3.41864892738237
C          -3.84919934475583   -3.90868590634365    3.51033725469660
C          -2.97536663898745   -3.79327499430030    4.56412402150075
C          -3.20431724869775   -2.86179963789415    5.57740566489796
C          -4.31265280619430   -2.05742748957840    5.51862401859786
C          -6.47832040871277   -5.16188855601550   -0.81438525546473
S          -5.79295650702320   -6.68739365954279   -0.40950176065726
C          -5.92472611710202   -7.30449410855201   -2.02464277121730
C          -6.44878705796230   -6.32284548770574   -2.87469002681929
C          -6.77020717035980   -5.10764280696510   -2.17778573553251
C          -7.26661315884802   -4.00583390992238   -2.90570076667114
C          -7.46953877621382   -4.11807102855256   -4.24883254445542
S          -8.10029183800681   -2.71405334651268   -5.16466708838008
C          -7.11876224068527   -5.30164493183201   -4.95607247017847
O          -7.25599167373717   -5.37656076051779   -6.30032351165835
C          -6.61638409141878   -6.37701479149719   -4.27182720249342
C          -5.49836688978364   -8.64811745372169   -2.22012243878564
C          -5.71365768594669   -9.44516284330959   -3.28611245499850
C          -5.19183393457588  -10.79254993485858   -3.39865866196012
C          -4.02163723650268  -11.12771307073785   -2.74372294726129
C          -3.44803190213990  -12.39845045739797   -2.86969644305827
C          -4.08557398230209  -13.35250879178996   -3.65170620893948
C          -5.26040583419947  -13.06275964069426   -4.34678703892371
C          -5.84137004433393  -11.77504279864434   -4.20287309914837
C          -7.09150617197700  -11.51865089369640   -4.82637446924746
C          -7.70748201744317  -12.45312603820332   -5.59038212544663
C          -7.11976994651356  -13.72535247984365   -5.82268546358756
C          -5.88854281317705  -14.04269971608153   -5.20416738070161
C          -5.32235510414943  -15.29672657987553   -5.48221925088859
C          -5.94637542181641  -16.19498579192156   -6.31334833302454
C          -7.17004650709297  -15.88155154883949   -6.90542752995131
C          -7.74528948830015  -14.66149961434927   -6.66210030145087
C          -2.23749175677201  -12.68921592296384   -2.14109451529617
C          -1.24158285716691  -13.53939303494987   -2.49173347955797
C          -0.23681994949559  -14.06331445633396   -1.56445608323656
C           0.16378555271952  -13.50474682134541   -0.38327311713368
C          -0.29320608744619  -12.26829980059003    0.12255725048386
N          -0.61201443895742  -11.26694047196284    0.58457053059989
C           1.13893306489893  -14.07030747236700    0.46648634594014
N           1.92418051296699  -14.47831545831455    1.19695117201991
C           0.27143484051290  -15.29214136228112   -2.15560631398028
C          -0.23488788711657  -15.41263344161022   -3.47075950730392
C           0.08735540949312  -16.50981264505992   -4.25326656510137
C           0.91509873553223  -17.48421042445035   -3.71733837432658
C           1.41806039349262  -17.36475191969712   -2.42878737775023
C           1.10445882069116  -16.27140153828198   -1.63624946603053
C          -1.04549063745170  -14.24149850753168   -3.76207099647097
C          -1.34979854805881  -13.76347002256554   -5.00538610977553
C          -1.08378191673311  -14.46419867858198   -6.20020455304616
N          -0.91412903438762  -15.01262928970677   -7.19380996049899
C          -1.89228391202582  -12.48191627060320   -5.24746204972264
N          -2.25939085478901  -11.42795007155077   -5.51265804016849
H         -13.54283741919911    0.11399946039651   -1.32373512531751
H         -14.85435598815293   -1.42801491118781   -2.71656002284880
H         -14.36075626092996   -3.83346201817312   -2.73880807069278
H         -12.54757883362451   -4.75944907509175   -1.35744737087696
H          -8.89092767373496   -0.46818641635108    1.39405677573688
H          -8.49833987859211   -3.38756077103314   -0.58630311032971
H          -4.95206949973996   -4.78771382213146    1.28886379476154
H          -8.12201900257932   -0.75990906707097    3.37437989003754
H          -6.52581529084591   -0.62030257269863    5.20492292373782
H          -3.63642164340760   -4.63935865238099    2.74668520703150
H          -2.10295848104701   -4.42818754378481    4.60907773483291
H          -2.51011233353178   -2.77984596213908    6.40030682017772
H          -4.50624055576247   -1.33173207222377    6.29535629530033
H          -7.46128206508071   -3.06590689690285   -2.41532445791912
H          -9.12057356393596   -3.37185375175811   -5.72821083238427
H          -7.42183167185044   -4.48817297460870   -6.65479001933604
H          -6.30954511044434   -7.23577517326121   -4.84183658324961
H          -4.98524744243397   -9.06376810000133   -1.36132620863061
H          -6.30518004992118   -9.08390358302343   -4.10990314378429
H          -3.49561001185515  -10.38427865762692   -2.16537058329047
H          -3.67653628994674  -14.35005304780718   -3.67953767339970
H          -7.57276506835038  -10.56642844954309   -4.67078828961950
H          -8.66269012087713  -12.24163015339759   -6.04928404569887
H          -4.37166627537134  -15.57548241752579   -5.05476141785102
H          -5.48408281378000  -17.15011037508858   -6.51408653336772
H          -7.65229921480696  -16.59641361436607   -7.55504937934902
H          -8.68745630791624  -14.39748394807178   -7.12058232314645
H          -2.16323434999575  -12.19984710141451   -1.17865103587701
H          -0.30290635715063  -16.61603236491944   -5.25266474317035
H           1.16922296082688  -18.34834160301847   -4.31182987917119
H           2.06122307402206  -18.13602153665451   -2.03353862435847
H           1.49837140788442  -16.19730598139071   -0.63589108098535
