100
 SCF done       -195.272877619480          0.000621297722
C          -5.11507846471388    2.55259980871120    4.57101827073765
C          -4.36463254744716    2.58870550693607    5.73784758553865
C          -3.31089511950279    1.70988968894404    5.94012620855961
C          -2.97087746860815    0.77212432548190    4.97592215891286
C          -3.71569245969859    0.72466228244489    3.81051201208193
C          -4.79531053926610    1.61304602284635    3.60475029742798
C          -5.40617724191458    1.32173203409272    2.31137843334644
C          -6.43296912288641    2.02595978848365    1.73318108562055
C          -7.03950716114743    3.16068884379643    2.30964087821120
N          -7.57776052010379    4.08800521504438    2.71998404511498
C          -7.00414849272154    1.73770994642766    0.47816908839296
N          -7.50767436393758    1.54194297754118   -0.53621705709218
C          -4.73897383839913    0.14219086391940    1.79117988188597
C          -3.57624186709529   -0.10132828917158    2.62142687536209
C          -2.42987687552436   -0.74660845001461    2.22586634361656
C          -2.22004408434715   -1.18994863591930    0.90475310352086
N          -2.00730142417470   -1.50957622959897   -0.17767902328222
C          -1.31821415109341   -0.96456744868709    3.05976509398033
N          -0.40130816732301   -1.21197341727295    3.70575526818491
C          -5.22793696761270   -0.64567617758656    0.77016834979176
C          -4.99739872386046   -1.99758112793472    0.51557434522450
S          -4.26303439586581   -3.14487207378913    1.63480859618557
C          -4.52298853284819   -4.52936842481535    0.60588205881418
C          -5.17374391240392   -4.11570330222033   -0.56677423908983
C          -5.43966899830478   -2.71667507620294   -0.59857642985060
N          -6.06074693464913   -2.42672984204093   -1.76257092895574
C          -6.19608563088135   -3.60009533384036   -2.46934205714858
N          -6.81795280864204   -3.59205647626973   -3.73183834977318
O          -7.20843768440387   -2.51173696236784   -4.14006216055924
O          -6.92272754139415   -4.65040761055770   -4.31866392011172
C          -5.66421525458787   -4.66256169834026   -1.76932087379292
C          -4.12446185576952   -5.82219593206107    0.96074345103244
C          -3.44037813704852   -6.11846726518645    2.10766875965938
C          -3.04622240813968   -7.40268150806810    2.51778755292088
N          -2.34188250987999   -7.58704501006152    3.69296229584723
C          -2.12444039553896   -8.91308435485090    3.86619974760657
C          -1.57302386804349   -9.85921654317073    4.71541872561953
C          -1.82899393865135  -11.11036543614033    4.12600767037618
N          -2.50979212485977  -10.92723434699847    2.94038795080085
C          -2.70994187426370   -9.59582256952110    2.75907574720904
C          -3.28060858542683   -8.65696322661215    1.91811209000147
C          -1.49185364977674  -12.36851912127541    4.66925384213996
C          -1.78264106454342  -13.58032749251849    4.11513908867198
C          -1.51957988841787  -14.83262057136525    4.70159238153616
S          -2.03459203998219  -16.29186309080103    3.88208452838536
C          -1.51184455378454  -17.35878833679912    5.15742653664221
C          -0.92910721384290  -16.59353784863912    6.18152607507178
C          -0.93718190494256  -15.19211690497224    5.91764722524592
N          -0.35836283331137  -14.56588138154339    6.97396395970652
C           0.00956777740887  -15.52445769882048    7.88505683306277
N           0.64497415634797  -15.12834673710378    9.07637403668101
O           0.82083836415238  -13.92752173708028    9.21748791751303
O           0.97250218083337  -15.98756072160727    9.86661441830097
C          -0.32507139525362  -16.78659171745679    7.43888761899338
C          -1.74699884589245  -18.73427693999270    5.15104661584653
C          -2.29085312981243  -19.43099886083186    4.10376979656365
C          -2.58727948953889  -20.80489976769931    4.10749682689762
C          -2.85300661286473  -21.60983700803861    5.19184935200121
C          -2.70617761533707  -23.05822625830366    5.19756083189284
C          -2.51982042585280  -23.88386958988806    4.11878798852346
C          -2.46640753016530  -23.48449026410608    2.76725683099132
N          -2.40786552459129  -23.24588191711452    1.64520167414818
C          -2.38481657148410  -25.28564648976479    4.21016411259950
N          -2.27120259092363  -26.42789716775990    4.20561061714694
C          -2.76721710051456  -23.48613561956392    6.59025053402993
C          -3.07362483278158  -22.36753917270676    7.39686216108391
C          -3.16173201482324  -22.49149282798387    8.77345042042200
C          -2.95121201576638  -23.73930771378414    9.34099943382682
C          -2.66386120260800  -24.84201194478563    8.54994015663096
C          -2.56739173875478  -24.72853421177525    7.17067352451471
C          -3.27176871181446  -21.21550959270457    6.52913470116985
C          -3.97817261129137  -20.09177977734809    6.87622283239546
C          -4.44571983284596  -19.82593624685896    8.17967506648385
N          -4.83802413927353  -19.53354523926530    9.21830639720412
C          -4.40176989715539  -19.08538419183816    5.98548898744554
N          -4.82011126354097  -18.24054365003235    5.32951141448388
H          -5.92913386502823    3.24483095071673    4.43313447557529
H          -4.60925740675691    3.31350057757562    6.49920552188238
H          -2.74583960930996    1.75438527017080    6.85863952955277
H          -2.15139753281001    0.09136085223210    5.14182724917654
H          -5.96969305690012   -0.20245466030846    0.11867215115854
H          -6.38429936300194   -1.53404862697849   -2.10660165404106
H          -5.64065563332638   -5.68034859871852   -2.10015331812929
H          -4.37911101102021   -6.60723187289056    0.26424673129186
H          -3.17813137517253   -5.29861802159570    2.76614476969798
H          -2.04232168538282   -6.84224520738003    4.29897393831345
H          -1.05728699307299   -9.70428849621474    5.64144553004008
H          -2.81970648758323  -11.66467797770463    2.33264910276449
H          -3.80536106584656   -8.82188220340204    0.99968806162551
H          -0.98328555269817  -12.32452034506078    5.61990393062632
H          -2.28241868466474  -13.62623432768583    3.15753394776452
H          -0.19096943488208  -13.58421965194276    7.13092139492269
H          -0.14594060082545  -17.70291298137570    7.96259022748988
H          -1.45502879872029  -19.26210474674862    6.05057801609081
H          -2.43069537048070  -18.90583088747837    3.16745997811451
H          -2.55707563472465  -21.28364815221176    3.13789092555290
H          -3.37644237048126  -21.64090690401889    9.39964956757815
H          -3.01158187757369  -23.84997195671825   10.41277234847279
H          -2.50785156207923  -25.80478549248111    9.01187407598595
H          -2.33722227131569  -25.59595326413778    6.57478982884436
