124
 SCF done       -212.954873438093          0.000626558350
C          -7.26728595759502  -10.45645054582432    3.55732699221960
C          -6.26595374102908  -11.41732822994665    3.56100328861729
C          -5.11745876259526  -11.25646829729489    2.80091993908178
C          -4.94012806152263  -10.13218517782987    2.00748047372735
C          -5.93065820887738   -9.16550348358060    1.99878927899122
C          -7.09746020076757   -9.32351170942005    2.77900452245108
C          -7.94402077964849   -8.14872468310261    2.59719762957260
C          -9.20377426212560   -7.98703744371126    3.11558814164479
C          -9.86585241342830   -8.95100308475865    3.90344238521187
N         -10.46922325723071   -9.68815065201375    4.54485820331560
C         -10.04094879591280   -6.87110955890918    2.91212590974311
N         -10.78670584859677   -6.00607956012994    2.78559608759993
C          -7.18755200453701   -7.20901116085840    1.78739098953136
C          -6.03419744343221   -7.91152233299415    1.26780825395923
C          -5.30759490203954   -7.58950848793905    0.14668391226011
C          -5.61005868538689   -6.52472419354883   -0.72107214761965
N          -5.81748989651938   -5.69112249047439   -1.48490431810462
C          -4.17247687891379   -8.29190066308005   -0.29567223620898
N          -3.21055496078312   -8.77873386053480   -0.69456694164844
C          -7.49736992108611   -5.86885441020372    1.67209130656061
C          -6.63624401903552   -4.82538577951195    1.33342180037253
C          -5.22951367764081   -4.75213289421361    1.33662160856116
C          -4.72765566249368   -3.50513685309363    0.86984427593578
N          -3.40819878897757   -3.26779633840321    0.80914497303400
C          -2.62456143544730   -4.23306081441457    1.20381862102900
C          -3.11301115226011   -5.46394042189210    1.71686363483574
C          -2.18545716590814   -6.51177601225980    2.22282207303616
N          -4.40158464936619   -5.70964164905669    1.78343815074476
C          -5.74381802207783   -2.58718445138564    0.53713864859927
S          -7.28887000650290   -3.27181052833943    0.87137537516747
C          -5.59730073013241   -1.25150361959639    0.08387049212951
C          -4.55487566701852   -0.75963811039601   -0.62857638651265
C          -3.55492673068792   -1.50167488598686   -1.35334848778683
C          -2.32701288515492   -0.91826177127390   -1.58153812580728
C          -1.34754008740721   -1.58868464432187   -2.34017663426390
C          -0.05126419646065   -1.23388927744750   -2.70736653009346
C           0.78955592825285   -0.08464947476585   -2.26479421241757
C           0.41662016487127    1.24114242671981   -2.96300029796744
N          -0.96494166769534    1.61375000829546   -2.72700173335711
C           0.77792864545286    0.08023472113944   -0.72275346681414
N           1.16568094009127   -1.10285858443342    0.01172425377413
C           0.42425022657607   -2.26931729979374   -3.59460510054782
C           1.56960869000859   -2.38288630917758   -4.29295959681410
C           1.78771549929386   -3.50365050281915   -5.25205215519792
C           0.76752585428134   -4.59984237498994   -5.16434556252755
C          -0.37354020904889   -4.47008954019000   -4.46010302019481
C          -0.61549265749517   -3.30346473688016   -3.69707160236136
C          -1.68341272539764   -2.87970693784179   -2.93128029453455
C          -2.95603489822600   -3.44797270418381   -2.69175897578789
C          -3.85329252634783   -2.78497363662448   -1.92117346496953
C           3.20399454946205   -4.02113086735641   -5.21464866211554
C           3.89405848045941   -4.40995984135894   -4.13431930521182
C           3.47887186284347   -4.52714394780753   -2.77530176912112
C           4.37170672419115   -4.56212323571960   -1.69540572698407
C           3.72592157712097   -4.67509095742979   -0.42766677215345
N           4.45574683041143   -4.80086064222736    0.69740751405863
C           5.74907215094402   -4.72352608292365    0.56470560441953
C           6.39474392496085   -4.49806975520018   -0.68475362257164
C           7.87242337248794   -4.32255857666459   -0.74989254932569
N           5.70866775678352   -4.45489481242415   -1.79818123049038
C           2.32505755879006   -4.73719530545139   -0.53078966095731
S           1.86275706100333   -4.69163187911136   -2.20577563513875
C           1.35262635012292   -4.92971692336180    0.47366073769111
C           1.47785953820341   -4.55910701634302    1.78742901614779
C           2.47246594663016   -3.65885443321422    2.19879672099770
C           2.96467057235870   -3.32199102522074    3.43660623907997
C           4.23834768131064   -2.62341890705156    3.55214113608921
C           4.93030071507349   -1.97170209884715    2.56083358777143
C           4.52032566178064   -1.76436924281865    1.22877603834954
N           4.30821140094370   -1.53592834955664    0.12056959448441
C           6.21829577067154   -1.42049324315225    2.72000915466598
N           7.27912204754159   -0.98003829369378    2.74391121432632
C           4.69929221834409   -2.79605733751142    4.92151144048129
C           3.71125749841082   -3.49923670604394    5.64595034792703
C           3.91977060002918   -3.83015354815159    6.97467894143598
C           5.10781471659682   -3.44581991131789    7.57899278887276
C           6.06850223043086   -2.73573707638364    6.87493414462127
C           5.87521796728616   -2.40469209975460    5.54213053427901
C           2.56665672557519   -3.72981148053490    4.77108900220668
C           1.32051653480018   -4.09188222435276    5.21751796298419
C           1.03035918110775   -4.46748484824278    6.54708458036396
N           0.71177757716592   -4.80672558469451    7.59677535537478
C           0.12561532752058   -4.06359085079760    4.47743995751574
N          -0.90536703152639   -4.04556671423505    3.96902343947472
H          -8.15083956564537  -10.59839197370757    4.15745540582672
H          -6.38504915561968  -12.30084435796408    4.16959554735982
H          -4.34873030440564  -12.01406230252147    2.82647225481044
H          -4.04142023770221  -10.01494465064880    1.42357792181324
H          -8.50427545261439   -5.56617161305531    1.92800310981419
H          -1.56282337510971   -4.03550594543459    1.16247433905191
H          -1.55373497085377   -6.87953702365277    1.41501859415582
H          -2.75420395115982   -7.33942302842409    2.63767385989870
H          -1.54913573983779   -6.08223016822869    2.99499256565217
H          -6.38698487298577   -0.57283202246712    0.38172398451742
H          -4.48234401799070    0.31760127833937   -0.71843330939307
H          -2.11675000115386    0.05939902718199   -1.17786476789794
H           1.82645864278868   -0.29991713724085   -2.55246996457825
H           0.65633776123280    1.13869465404251   -4.03609876419991
H           1.05241159182405    2.02918030821843   -2.55044995467469
H          -1.12736318869660    2.56982374292986   -3.02083929257934
H          -1.58504187597708    1.01315079947895   -3.25990862597774
H          -0.21529568656458    0.37804843508552   -0.39051918594955
H           1.47968110788879    0.87584798502034   -0.45937931289742
H           0.54171531150834   -1.87288397239295   -0.20803950092426
H           2.11262727695977   -1.37380148703470   -0.23827049828492
H           2.36010337695269   -1.64692140865972   -4.23287488341513
H           1.65905376945948   -3.04889371913256   -6.25044504997328
H           0.97389929531197   -5.48550558794862   -5.74472581114195
H          -1.10983440342156   -5.26011808579977   -4.45666063705405
H          -3.21219613965987   -4.39581618116522   -3.14123786269857
H          -4.83751160027505   -3.20174993005214   -1.77458417309034
H           3.71750214719487   -4.04388329467347   -6.16516258070420
H           4.94118087174676   -4.65964673583532   -4.25971079690119
H           6.33333314688086   -4.84369228717976    1.46794999780670
H           8.37698725789702   -5.17367186384552   -0.29551088116526
H           8.16000237513545   -3.42794190012170   -0.19838327900807
H           8.18517262924037   -4.22153902183663   -1.78483145534224
H           0.45215451686220   -5.44500765908909    0.16246753180020
H           0.76228947681419   -4.95345370420090    2.48833606259735
H           2.97797717878429   -3.17664098793639    1.37910930825356
H           3.18651944342116   -4.38368768215821    7.53726477205129
H           5.28218314445149   -3.70308425542782    8.61255055609397
H           6.98222788413615   -2.43863764931948    7.36658566068166
H           6.63358383377990   -1.85464174920623    5.01006906370043
