94
 SCF done       -174.013069281158          0.000365685604
C           1.57281546323659   -3.43081343543454    0.84523084932289
C           2.11091071968432   -2.77046628840484    1.94106465824745
C           1.30746737667027   -2.35573881715944    2.99193718135075
C          -0.05814816544613   -2.60134636240877    2.98427922698144
C          -0.60443478123988   -3.26153307705966    1.89752499074597
C           0.20920456198273   -3.67085174579011    0.81789700998334
C          -0.63606261320347   -4.29504366783956   -0.19522031118113
C          -0.19436546290924   -4.82416545424723   -1.38357540566163
C           1.16108077486461   -4.88933325957750   -1.76608899797752
N           2.24132947785971   -4.98098263200263   -2.14510232192521
C          -1.00387469514156   -5.38732759021180   -2.38982934999270
N          -1.59317721586341   -5.85030086939056   -3.26141478159506
C          -2.00505661392951   -4.18436944805174    0.26911351529287
C          -1.97144660038448   -3.68291545989045    1.62518626694184
C          -2.96826705495616   -3.78581952737270    2.56873477426034
C          -4.16907285044208   -4.49523999607873    2.38939919284075
N          -5.14293974751577   -5.10241259774157    2.32755287661608
C          -2.88390966221414   -3.25954166006494    3.87158948788109
N          -2.90485818728448   -2.82151625555887    4.93336957083278
C          -3.11542249033415   -4.49162121473642   -0.50167176254916
C          -4.42044999033807   -4.02729543715791   -0.36926997134455
S          -5.70585980769630   -4.96388228678086   -1.08095845581583
C          -6.94970180441578   -3.95440173116151   -0.42432854377784
C          -6.38583882233613   -2.84250735276482    0.23703911789204
C          -4.96024841654399   -2.87598315045266    0.25265296411711
C          -4.24292685265727   -1.80157481660130    0.78607569228535
C          -4.91940983892107   -0.75465966090096    1.37370145529582
S          -3.97127266544667    0.55525837438234    2.06330676429238
C          -6.32542913002577   -0.73395588515866    1.39350570799107
C          -7.04391432133934   -1.74193681008495    0.81180514827478
C          -8.29684732841545   -4.34914766043956   -0.56849001876794
N          -8.63976095911276   -5.36368498497294   -1.44326009437845
C          -9.97435235584559   -5.58522326907653   -1.35596311943697
C         -11.01765009403212   -6.35777123485359   -1.84130420552332
C         -12.17121754973597   -5.92529479956720   -1.16228005595593
N         -11.83037549799691   -4.90734743206829   -0.29127616893397
C         -10.49608111067436   -4.68289790988586   -0.38617770157253
C          -9.45338463046457   -3.91114960284758    0.10265102491652
C         -13.50650516973086   -6.36867428091114   -1.25876474637282
C         -13.91814921604623   -7.41649772892307   -2.03084492159494
C         -15.22376547598429   -7.92328175330209   -2.15087957310547
S         -15.38791410446289   -9.51936661133920   -2.80619458055597
C         -17.10829449875724   -9.56677336271729   -2.55540616695004
C         -17.54742168540404   -8.33029017311142   -2.02420043172430
C         -16.49289015856093   -7.39889568718637   -1.80383785419638
C         -16.80427200952502   -6.10922759443089   -1.35291275970642
C         -18.11100292451714   -5.78492375359751   -1.06620478577859
S         -18.45558938317873   -4.14904139236110   -0.50146010083416
C         -19.14294040255951   -6.72658947630074   -1.22811926437402
C         -18.86933267565253   -7.97724071209598   -1.70882638182034
C         -17.94163041482071  -10.60855177769802   -2.95947891704665
C         -17.61901874572432  -11.88311922668903   -3.37821076241960
C         -18.45101165631450  -12.67885664631331   -4.26115514684323
C         -19.77000053447806  -12.46966788567222   -4.58279701660021
C         -20.58539606026842  -11.44558773856381   -4.06255326306927
N         -21.30740513904988  -10.63790359806864   -3.67759181624912
C         -20.51012297215847  -13.28820661659748   -5.45988910002946
N         -21.17398020495174  -13.90852219929081   -6.16224988417982
C         -17.61122498899023  -13.75770650151189   -4.77177876570378
C         -16.35852691799817  -13.70644379546652   -4.12020515134760
C         -15.35886551199120  -14.60980977093383   -4.43520455336534
C         -15.61488731937755  -15.56682676674743   -5.40673077060966
C         -16.84669354577570  -15.62588559027690   -6.04103871409265
C         -17.85679134347880  -14.72614746093641   -5.73098632144208
C         -16.40157796292775  -12.63286191912460   -3.13796647071845
C         -15.61091409609248  -12.54827003323877   -2.01861407505272
C         -14.47511282089880  -13.34898834445345   -1.79431235033673
N         -13.52722766261093  -13.95715778390219   -1.57014538497426
C         -15.91334791622429  -11.71674191889290   -0.92205399289684
N         -16.16212900402291  -11.08748566290000    0.00604532598710
H           2.21423023510523   -3.74277150414890    0.03782230345137
H           3.17203641459142   -2.57510965140126    1.96962313490605
H           1.74636395929970   -1.83454352543276    3.82897125889602
H          -0.67385802810963   -2.26984637388307    3.80446734404212
H          -2.95798567175475   -5.16991096723633   -1.33057511886293
H          -3.16788871705144   -1.76592075469335    0.71479692780514
H          -5.00406991904281    1.26004117584303    2.52347872460187
H          -6.83794097711059    0.10344583919218    1.84344140561222
H          -8.11707441774298   -1.67309837201393    0.77192403758256
H          -7.98282122057845   -5.85216818780331   -2.02792116858304
H         -10.97664042731256   -7.13217546415737   -2.57910245841763
H         -12.47646593339757   -4.44467035498529    0.32505622630321
H          -9.49801655165907   -3.17617483432937    0.87801731616455
H         -14.21740943301976   -5.85745209567223   -0.62724091637122
H         -13.16162666076422   -7.97719745663544   -2.56374220676739
H         -16.04399126864420   -5.35309767057241   -1.25793147636493
H         -19.77125235317034   -4.30858123042529   -0.37924694912679
H         -20.15959452893846   -6.45263190154108   -0.98819955030628
H         -19.67200952164990   -8.68312543040570   -1.85167109269196
H         -18.98280154859806  -10.32866471482964   -3.04093855489989
H         -14.39676950499649  -14.56900471568034   -3.95044330575704
H         -14.84283314984135  -16.27345607848754   -5.67046581586666
H         -17.02585398101778  -16.38115045687888   -6.79098019136976
H         -18.80662533169752  -14.78756650663065   -6.23600738307288
