112
 SCF done       -194.504712576451          0.000501416900
C          -3.01211995960560   -3.15690462441521   -5.91323164791353
C          -1.67885829357682   -2.89953665631507   -5.63523989532337
C          -1.21451990096898   -2.85252031862408   -4.32808019486957
C          -2.06660178645827   -3.08900867617979   -3.26150571876824
C          -3.40401056308625   -3.33384901182449   -3.52541407544176
C          -3.88701773986573   -3.34741498378373   -4.85364068341403
C          -5.32149146847613   -3.58762456729475   -4.83441678901012
C          -6.13248126373380   -3.77220195052316   -5.91965671045214
C          -5.69994318081888   -3.66727483774810   -7.25938857616492
N          -5.41756038636572   -3.55905309189684   -8.36625188559869
C          -7.50204859076891   -4.10334426914253   -5.84213541853671
N          -8.61252572627954   -4.39461680585190   -5.83001276985032
C          -5.73028580842807   -3.56415007152120   -3.42832229470310
C          -4.50620961436337   -3.63656495599962   -2.63059661336634
C          -4.40221027015893   -4.11274690794395   -1.35510457454121
C          -5.48902341675310   -4.66010503262031   -0.64262730038073
N          -6.33074153961981   -5.17487171402969   -0.05682656889263
C          -3.18711391355754   -4.18941778902785   -0.64232062046766
N          -2.22929167613591   -4.26339499701503   -0.01514812461418
C          -6.98893123671276   -3.30486209580656   -2.99534234868701
C          -7.38197040079609   -2.87328651618831   -1.67817388631947
C          -8.54259362484408   -3.27278705522552   -1.03356182582915
C          -9.56756509241911   -4.27252129266402   -1.36045608944110
O         -10.61472979152752   -4.26839619922017   -0.75171016927626
C          -9.24688183673203   -5.28291347531611   -2.42693576365136
S          -8.73495713313937   -2.49545728580491    0.49543794234506
C          -7.28329742247959   -1.62273920632490    0.26996004557791
C          -6.66062696768670   -1.89952364223690   -0.91273759228448
C          -5.43699293295188   -1.23245577867590   -1.37014349178077
C          -5.37616872332344   -0.67226400548364   -2.61449388401411
C          -4.15849534939778   -0.13112286502671   -3.09582683986433
C          -3.80501797846649    0.44191735452290   -4.30244010071606
C          -4.60810493925648    0.84308748245330   -5.49788899426718
C          -4.55362295088005   -0.24180636194501   -6.59177169574966
N          -4.73849962597783    0.36170388150899   -7.89517480004964
C          -6.05727856250462    1.23474509445038   -5.17956331762865
N          -6.62562227784960    1.97947238967166   -6.29366712439940
C          -2.37194542108736    0.64600516745953   -4.25452033244810
C          -1.51309431538580    1.04350335131511   -5.20774474756789
C          -0.04637053726940    1.14970361895857   -4.94644004642680
C           0.36248053329455    0.76089961207897   -3.56188228191601
C          -0.50992048778040    0.33679068229712   -2.62883589625750
C          -1.88887292359745    0.24383629890403   -2.92967707697820
C          -2.98138549906726   -0.22535836907574   -2.23177735683120
C          -3.10328412921386   -0.74158344194388   -0.92033163043318
C          -4.30177340974446   -1.21696091093948   -0.49831449221703
C           0.35548322699501    2.57336604754328   -5.26180949071437
C           0.74886069338036    2.96942905444623   -6.46684412456010
C           1.07320782465433    4.35153897627313   -6.80862203267002
C           0.49157285922237    5.05406809422725   -7.84268022964564
C          -0.53409946497005    4.73412493482630   -8.83914320817981
O          -0.82162395696432    5.56382187718251   -9.67457423505771
C          -1.20961607705504    3.39108136729000   -8.76748950556690
S           1.06056150619394    6.69589677558842   -7.92181373761981
C           2.01872922793403    6.45968071041650   -6.54766267884041
C           1.97921445127571    5.16967498314467   -6.06057548753643
C           2.76249364074868    4.79079703221650   -4.91489532872419
C           3.37385909259075    3.60946854480146   -4.65405267052636
C           3.86359822102889    3.20680398635227   -3.33273140935823
C           4.18947029117259    4.02478172494863   -2.28925929287681
C           4.15775448401971    5.43663343548321   -2.32510443981773
N           4.16398665590173    6.58364755914447   -2.28947303670762
C           4.65417327404050    3.56291385737396   -1.03758243815091
N           5.03292315579165    3.25056878424258   -0.00088859800336
C           3.95115195727341    1.75396706186679   -3.34979839663205
C           3.71157480058878    1.29375541864008   -4.66624366093208
C           3.71895157386507   -0.06293654544010   -4.95041539311661
C           3.95910149767083   -0.95551330641873   -3.91700941954445
C           4.19855165638770   -0.50541821703807   -2.62556436143993
C           4.20071411405847    0.84909854608516   -2.32860800958216
C           3.51075027187087    2.44639629351135   -5.52744283314517
C           3.64295570390064    2.47057339683597   -6.88720532201321
C           3.75964095766098    3.65657054746308   -7.64301598136306
N           3.93163963557008    4.58546043386283   -8.29367436743155
C           3.74405125366151    1.31087738205671   -7.68338770835956
N           3.77375022501001    0.39449123840084   -8.37349318321234
H          -3.35144535715621   -3.20403038835413   -6.93488675209346
H          -0.99314564930439   -2.73538033446119   -6.45262707123386
H          -0.17437594266025   -2.63712907643266   -4.13629557629830
H          -1.69419108938985   -3.06552340035003   -2.25088672907725
H          -7.78736687176915   -3.32229050589235   -3.72418645847230
H          -8.21142757905614   -5.60590204311717   -2.35674933966193
H          -9.41987286676585   -4.85386680606586   -3.41358101950546
H          -9.91186527950533   -6.13519863692102   -2.31180363049009
H          -6.96057861675986   -0.91729866827844    1.01081456485998
H          -6.25444652535985   -0.66890428733081   -3.24104818185226
H          -4.12625478377634    1.72786268276598   -5.93131059755298
H          -5.29917146434961   -1.01911580709076   -6.34953657379806
H          -3.56621936704243   -0.71696011497338   -6.57769951162966
H          -5.60639380031081    0.89291666197145   -7.88715905071726
H          -4.81518596945146   -0.35892357221494   -8.60579547585591
H          -6.07442329291179    1.79446504132561   -4.22895314826315
H          -6.67064636573690    0.33808474662030   -5.05620843684402
H          -6.14564930615928    2.86683411071744   -6.40593425735168
H          -7.60576899798582    2.17746489114868   -6.12444587269306
H          -1.84551869310769    1.30114637608885   -6.20394728822418
H           0.46710620483185    0.49399699759977   -5.66679481540522
H           1.41598749924056    0.83160229847607   -3.34134423677401
H          -0.16534936555140    0.05314168425757   -1.64499905035136
H          -2.24043339689300   -0.75987189428165   -0.27165073469698
H          -4.41759471233362   -1.62470063964961    0.49529604571515
H           0.24042550491633    3.28088205871876   -4.45253586460287
H           0.82320118547578    2.24865770986979   -7.27286531296671
H          -0.52304899895396    2.61967427068746   -9.11156517791817
H          -2.07853247126244    3.39482052562125   -9.42050453750633
H          -1.51255397059846    3.16642299576846   -7.74837676928664
H           2.63475995957314    7.25317760245654   -6.17086031757937
H           2.83379033304778    5.56549454116180   -4.16232580740638
H           3.53220887782008   -0.42471372329481   -5.94857934356930
H           3.95968356178969   -2.01513782875149   -4.12151690808858
H           4.38416377534643   -1.21873180164972   -1.83754011636769
H           4.38416921349724    1.18090916979037   -1.32002180549773
