95
 SCF done       -184.500615927743          0.003180514034
C           1.71409924979105    1.12331103773617    5.81837979536167
C           3.08196238402108    0.90507105972534    5.74820076317064
C           3.59473213529047   -0.37298369244418    5.57781500279755
C           2.75423337890804   -1.47195305440707    5.48056183802407
C           1.38573337792117   -1.26742174080638    5.54867681537677
C           0.86155263273833    0.03563164858255    5.71250599135645
C          -0.59303201330726   -0.03902061160429    5.73271574724105
C          -1.45530406234353    0.99587590696925    5.97629169350449
C          -1.04925610560873    2.32253774070442    6.23401646951999
N          -0.78851996934132    3.42005480230520    6.44584317879284
C          -2.85975650717605    0.87613535595763    6.04307073206023
N          -4.00482008318067    0.84221205594759    6.11905751789485
C          -0.94379214264230   -1.42554441789475    5.45682695944783
C           0.27841998146509   -2.21168454393263    5.53156544323476
C           0.36958288547359   -3.56505344757452    5.72222945676728
C          -0.70746249277304   -4.39085348174043    6.10588276891306
N          -1.50614181861239   -5.10068769703535    6.52571387971232
C           1.58300164884343   -4.28353108366987    5.69911420171030
N           2.53170098778843   -4.92831684562987    5.65278039056046
C          -2.15818169931392   -1.84617650642926    4.98318961009770
C          -2.41016133246948   -3.08720965480551    4.44729029967054
C          -2.69809664083664   -4.13919299360440    3.89907528024539
C          -2.88818220811982   -5.38116028397458    3.34005067269248
S          -1.55695279739763   -6.51026381322097    3.25034835683872
C          -2.59025625384686   -7.69646813450970    2.50148238143282
C          -3.88195470735772   -7.22157964882739    2.34472847212602
C          -4.04800550842996   -5.92379379300298    2.81024610889716
C          -2.06959947593173   -8.92635554591640    2.14278637182611
C          -1.54394255935377   -9.98459238514699    1.85482122875485
C          -0.88335956477224  -11.16361386308950    1.54543532592531
C          -1.48217257426011  -12.27128163083491    1.05300080992269
C          -0.77177014456080  -13.47731196413068    0.74724378424235
C          -1.42963967957249  -14.61036565638984    0.27307896157600
F          -2.76344116574643  -14.55917953030559    0.09680691597254
C          -0.78987483152300  -15.81784654195228   -0.03306718720458
F          -1.54309212152639  -16.83929294505663   -0.47600349433063
C           0.58119800009535  -15.99546949419266    0.10323602002499
C           1.28673564510821  -14.86400845856909    0.57429329981339
C           0.62962159835465  -13.63921823093066    0.89323866762935
N           1.57839513007510  -12.78751691462435    1.30971792887162
N           2.68928208080568  -13.46934350694190    1.23567509444813
N           2.59379132865662  -14.69680312299888    0.81130455879478
C           3.94435021964242  -12.90313978000874    1.62080647164290
C           1.23969874917109  -17.19036937339662   -0.18350502096527
C           1.81779042647863  -18.23038639199701   -0.42026065651268
C           2.55144446013244  -19.37904052344440   -0.65963946742202
S           4.28859520448474  -19.33253611640918   -0.56525166720454
C           4.37307290873585  -21.03483961186727   -0.94436054731474
C           3.11209891891398  -21.57450992218996   -1.12921297985569
C           2.08995824643425  -20.64473930566936   -0.97122219225896
C           5.59786049517824  -21.66625435221697   -1.01324640103600
C           6.70541429695606  -22.16965831363157   -1.04706154404901
C           7.96189184937723  -22.74528344639420   -1.06382961779267
C           9.09981352068763  -22.00179860197192   -1.00545879651759
C          10.42009928933286  -22.51366103660704   -1.07483021381430
C          10.87612841671104  -23.74816070393073   -0.70210206001219
C          12.10582675560994  -24.35639327341558   -1.20061884899819
C          13.15265172744377  -23.73005237333722   -1.82193287443636
C          13.26386151380909  -22.34241775802467   -2.05578372823052
N          13.43825668262808  -21.22925246590385   -2.27876362119695
C          14.30928348894017  -24.39394984632438   -2.28392107410031
N          15.27634686675129  -24.86738161433944   -2.68173933772431
C          12.01275573965230  -25.78320317822504   -0.91898234166891
C          10.86484700969507  -26.01859401577304   -0.12911351996740
C          10.52545031659565  -27.30384595274443    0.26029302619026
C          11.33938938019664  -28.35260686195943   -0.14002257789978
C          12.47256717088534  -28.12299212775589   -0.90786124715311
C          12.82165539419425  -26.84073985089813   -1.30451671122593
C          10.22787744861474  -24.74074329524475    0.14931465699332
C           9.38712565397972  -24.49007643993467    1.20066235491777
C           8.88876670011738  -25.48988400360352    2.06092294592499
N           8.44218892168314  -26.26101596278570    2.78349853817300
C           8.98606004882249  -23.20079195612530    1.60957562966399
N           8.66130826698953  -22.17751552211406    2.01522615879154
H           1.33288341759268    2.12270776590746    5.94907224934604
H           3.75543434622976    1.74495429966780    5.82583583366487
H           4.66292794409488   -0.51720166111354    5.52113475704036
H           3.16489798467531   -2.45952488269834    5.34677819852470
H          -2.97981424578332   -1.14265818545500    4.94007536967935
H          -4.66360185013685   -7.81303587449875    1.90231647366941
H          -4.97482518652394   -5.37896506423471    2.77858072244597
H           0.18396131936115  -11.16839499520888    1.72646418003102
H          -2.54924982234705  -12.28063426514402    0.87673875675697
H           3.99730334523599  -11.87249399181372    1.27094674927607
H           4.73841276251603  -13.50298978816827    1.18090240817772
H           4.04248822856452  -12.91218038006363    2.70911348132239
H           2.95844443585742  -22.61148415269223   -1.36969264035406
H           1.04282266702076  -20.86793765894810   -1.07159080428654
H           8.00494591379974  -23.82343841962559   -1.16104576051925
H           9.00169676497933  -20.92429671993508   -1.01733190721885
H          11.13181491658798  -21.84926736200484   -1.54802201381710
H           9.64331841395011  -27.49466213204122    0.84985338020379
H          11.08434473012809  -29.36068760230881    0.14916875458053
H          13.09241983311870  -28.95447655105023   -1.20657474980448
H          13.70171400015373  -26.68305277069625   -1.90595428232997
