140
 SCF done       -253.714254578363          0.000495036127
C          -3.99488020447625  -16.75524591411897   -4.88161848157667
C          -4.95257325446715  -17.30588138725018   -4.04178427709936
C          -5.73237709103751  -16.50430390979712   -3.22151607708357
C          -5.58230948991464  -15.12511946940212   -3.22233468651264
C          -4.62716589637050  -14.56572783609761   -4.05295648450383
C          -3.82553288101147  -15.38049361329194   -4.88423498808183
C          -2.90491459164327  -14.52943659458183   -5.63131773889871
C          -2.04778427786420  -14.94564923182148   -6.61954332461991
C          -1.93069585836573  -16.28092339403189   -7.05530301378386
N          -1.78493831363275  -17.34631793157469   -7.45842746511882
C          -1.20650000727378  -14.10002854929350   -7.36922288308213
N          -0.50912048685923  -13.46123673565654   -8.02263940498444
C          -3.07524415759619  -13.18143708291487   -5.11998250952909
C          -4.27320886942171  -13.17690104947349   -4.30149679083187
C          -5.07926162299677  -12.08985818451260   -4.06826596095637
C          -4.85919612707436  -10.83640003648869   -4.67442021852253
N          -4.73586541154924   -9.82885678589782   -5.21176122925184
C          -6.24377493400246  -12.12670789247575   -3.28071706526187
N          -7.18070949307965  -12.09603778408386   -2.61663895966217
C          -2.17665028672514  -12.15724283106033   -5.30913388924256
C          -1.97758773479999  -11.01061205997093   -4.52870982540226
S          -2.52239047611194  -10.85499978197398   -2.87532938328140
C          -1.78845383608436   -9.28889962968763   -2.72032598953945
C          -1.14757367947980   -8.92050019290400   -3.90189185139459
C          -1.22900634796445   -9.88968363296368   -4.89975510777276
C          -0.62609811744940   -9.71389423290060   -6.25475501180143
C           0.44292250646074   -8.62117733945347   -6.23000775379723
C           1.66387121531506   -9.10656851041701   -5.50034366401509
O           1.78408404328443  -10.13999054033214   -4.91173896298127
C           2.86956325537635   -8.11107686927878   -5.53345809018931
F           2.88449929262178   -7.35031647717821   -6.63846627575933
F           2.82047841105943   -7.26718750899504   -4.48800662568680
F           4.03612031105739   -8.74840652646111   -5.47473962454513
C          -0.11913538114161   -7.35677162808983   -5.55673203390460
C          -0.43016866339308   -7.61795125394343   -4.08391798177970
C          -1.89257807942067   -8.54476131416082   -1.52131151476534
C          -2.62449212384054   -8.95869940639964   -0.45707921370767
C          -2.83139358067275   -8.28336805629801    0.78661358440485
C          -3.67797749103741   -8.87400899754977    1.70551759315283
C          -3.93869805835936   -8.25256834350394    2.93798011164873
C          -4.74154053817250   -8.63515990656929    4.00347052281602
C          -5.64532785569842   -9.81518859197481    4.14864206414974
C          -6.92803312375221   -9.59208615928854    3.32157961377721
N          -7.65240151912379   -8.44812836883700    3.84777231706210
C          -4.98540843472761  -11.17622295031086    3.83159211829814
N          -4.97155245843069  -11.50680064602408    2.41574061503482
C          -4.63832074354780   -7.58482592730941    4.99137258083836
C          -5.21683597384512   -7.44547747585242    6.19590067531353
C          -4.99013233915222   -6.23737393989507    7.04413625720380
C          -4.04331935304400   -5.24090048419540    6.45747624604466
C          -3.45960055781338   -5.40192674308778    5.25647344660499
C          -3.72914960309876   -6.55267782299962    4.47543209648630
C          -3.30508706822235   -6.97111324600569    3.23317904616479
C          -2.43254657774391   -6.39448838024055    2.27773908747663
C          -2.20721498227732   -7.02758822666514    1.10080655558964
C          -4.54273506929669   -6.68486647343264    8.41770389763355
C          -5.35233813648562   -7.27156751768865    9.29463958404312
C          -4.92884600002527   -7.77033639149605   10.58753992797170
S          -5.28630089595577   -9.41162904470899   11.00134154296612
C          -4.46336979659656   -9.25414716259055   12.53209022618729
C          -3.97624546530054   -7.96375429668500   12.69662821187462
C          -4.23672714057038   -7.13186773281804   11.59391021850542
C          -3.86473575478103   -5.67984526504035   11.58883006581891
C          -2.68793708159081   -5.43772973288786   12.53438273332894
C          -1.44041905407508   -6.05383492175798   11.96659572394890
O          -1.35325568685473   -6.67122323335554   10.94594312575387
C          -0.15531298132261   -5.81795243666954   12.82374346577639
F          -0.18664862751903   -4.64585194240740   13.47696029044391
F          -0.01282534330540   -6.77528780105329   13.75374473754812
F           0.94178024144092   -5.82366596892121   12.07129570172608
C          -3.01993067120622   -5.99819797262568   13.92780872106305
C          -3.19314114796291   -7.51620693707396   13.89053695576658
C          -4.35981593089672  -10.34013773171279   13.42509376109489
C          -4.81838131394840  -11.59519825608940   13.15942339686680
C          -4.69978712142739  -12.65145381597056   14.07980406704579
C          -5.20758774513241  -13.91718356563915   13.93613951697861
C          -4.75378298283718  -15.08154611398083   14.68354653711420
C          -4.09309713630354  -15.08937189974957   15.88343985524090
C          -3.77426431270837  -13.94216543178736   16.63972209916604
N          -3.48952729576938  -13.05179344127533   17.30690389131071
C          -3.68191356914043  -16.26115733602405   16.55279012412212
N          -3.32271213146430  -17.17359429869615   17.14950576313380
C          -5.14665283323348  -16.25370513410346   13.91149510934543
C          -5.94123813621668  -15.83572682810796   12.81947293920983
C          -6.42909108292435  -16.75763940203385   11.90863156516929
C          -6.11986353929377  -18.09730517932835   12.09198293401844
C          -5.34755219677632  -18.51039729679918   13.16791817160578
C          -4.85505107221379  -17.59671859053500   14.08821561055213
C          -6.12029975989858  -14.39379067750589   12.90875137287630
C          -7.11686591205659  -13.67310281211108   12.30323327717175
C          -7.97117027620125  -14.19409158455060   11.31006197453298
N          -8.67496851303840  -14.54919167713986   10.47540200235566
C          -7.49173055346955  -12.36435922929476   12.67659367360746
N          -7.88254138324613  -11.32770166028393   12.97732005452134
H          -3.39878774725244  -17.39486687003133   -5.51144339983402
H          -5.08900554755219  -18.37655200507035   -4.02836948956766
H          -6.46721254256995  -16.95737610660968   -2.57337316588384
H          -6.19107979766913  -14.50889891672425   -2.58029624412228
H          -1.46303155973857  -12.27799851044644   -6.11264349786577
H          -1.41045312738196   -9.43869615322907   -6.96497954477743
H          -0.18583001708278  -10.65294327225130   -6.59817394938030
H           0.74683668170424   -8.37159350473950   -7.25278956313515
H          -1.03701193784043   -7.08631819381666   -6.08107195163583
H           0.57813914213409   -6.52333083550857   -5.64729280653855
H          -1.04254271497665   -6.80070622335586   -3.69677742851671
H           0.49642446224924   -7.63646513296929   -3.50016138675291
H          -1.36340855589865   -7.60352461402562   -1.50034949297349
H          -3.13842453903020   -9.90935901292295   -0.54899668832275
H          -4.14280564625409   -9.82651482634787    1.49611007090042
H          -5.94663741336122   -9.86302084262982    5.20109399542291
H          -7.52466664046818  -10.52117474910560    3.33540961844155
H          -6.65287793628344   -9.36917806704250    2.28949626533003
H          -8.06341386841533   -8.67196065994970    4.74818229422412
H          -8.40370683540428   -8.18524522058518    3.22094281949544
H          -5.50840368923052  -11.94348431356644    4.42771290309151
H          -3.94719268746578  -11.14132796559807    4.17284402064774
H          -5.90951009135303  -11.69779782983957    2.08104436566284
H          -4.41281227358117  -12.33851550286782    2.26128885613553
H          -5.87197452308719   -8.19791735005999    6.61130448433795
H          -5.97297288216405   -5.75281998220956    7.16309582953643
H          -3.84846959492406   -4.36602311380115    7.05999429759882
H          -2.78304300395968   -4.65363483555467    4.86977978117266
H          -1.95546726713211   -5.45057495798483    2.49845947154904
H          -1.54173138267314   -6.58616115817992    0.37526834094117
H          -3.49170811760254   -6.56067793137231    8.63497511432176
H          -6.38610108973586   -7.46939034248066    9.03592780696570
H          -4.72044654110473   -5.08921100140396   11.92847735782200
H          -3.61446191622091   -5.35378142735830   10.58054467328440
H          -2.49718030108388   -4.36190571888414   12.63036410675609
H          -3.95104116875931   -5.53114451694730   14.25322915977642
H          -2.24681051482807   -5.73404841094705   14.64956733931309
H          -3.68830765950509   -7.84238587283181   14.80765008344245
H          -2.21261764800025   -8.00312971233689   13.86449326805378
H          -3.90366259974070  -10.14122055091121   14.38593645777517
H          -5.25391052642328  -11.78421813897488   12.18814686876872
H          -4.07702442069897  -12.45584919363050   14.94208456295378
H          -7.02615982273557  -16.44828381977000   11.06604732695767
H          -6.48594534526962  -18.82642152159894   11.38537310173551
H          -5.12138803528338  -19.55837140366923   13.29201008193333
H          -4.25357842742287  -17.93503552908268   14.91585088469153
