136
 SCF done       -223.368761487653          0.000947318878
C         -10.73463950639563    1.50172795930437    5.59841484925491
C         -11.23424616236514    1.87499143905374    4.35883554634717
C         -11.18763074356956    1.00795503140309    3.27775828699819
C         -10.64738968928340   -0.26345942139949    3.40713696173448
C         -10.14522100826643   -0.64575122734694    4.63882548068435
C         -10.18189699214137    0.23956111479791    5.73937159745362
C          -9.56546396981060   -0.41375257711139    6.88896657488001
C          -9.48533170446643    0.11256665454134    8.15602072336312
C         -10.01513231674223    1.36377622365147    8.53064661749468
N         -10.42114592758892    2.36819137552018    8.91243483652232
C          -8.89974284605504   -0.51744754116478    9.27054066375034
N          -8.43788946332308   -0.97120867986955   10.22111943330852
C          -9.04576256268721   -1.68558793607924    6.42193589443655
C          -9.56363640966472   -1.90319061169274    5.08614215493701
C          -9.73570523913861   -3.12074915044066    4.47462451592794
C          -9.47809865889662   -4.35155834613631    5.10930702986024
N          -9.34711849961154   -5.37622496962675    5.61082987372175
C         -10.28751300428303   -3.28657091688616    3.19032267270366
N         -10.70234720358446   -3.47976473351676    2.13679275219700
C          -8.15231808291857   -2.46002918238924    7.12912376823650
C          -7.23474083926675   -3.41097043360039    6.66348113939249
N          -6.51081858176046   -4.15898927100478    7.56200093502183
C          -5.59641022323190   -4.93032847116953    6.93144730168494
C          -4.64411354997064   -5.74264932918723    7.60137721897939
C          -4.71463748964644   -6.14535304320708    8.89247922559413
C          -3.73301496896811   -6.95673133455502    9.52703792988217
N          -3.87324095477701   -7.37860340625372   10.82295052100682
C          -2.81493325493101   -8.14001055440287   11.17777249703635
C          -1.96241811872685   -8.22251225706301   10.10126980646723
C          -2.53212619681796   -7.48264494719243    9.06150736487299
C          -5.72111242024549   -4.67292658587436    5.53840683659325
C          -6.72886066375917   -3.72382933768206    5.39331532307197
C          -4.97320024535635   -5.26285221287187    4.45927810390604
C          -4.40730083482014   -6.48055781088840    4.49543141590028
C          -3.55528045236003   -7.06531584201235    3.48424248246477
C          -2.73851607717509   -8.10870471491786    3.84857447793742
C          -1.79412624856842   -8.63598347266716    2.94199502576897
C          -0.81254479844826   -9.60255436835405    3.08618659638468
C          -0.48675291498412  -10.44486090114988    4.27641154210973
C          -0.29624103083615   -9.62265756775981    5.56362017001277
N           0.71262524049492  -10.25463606227095    6.39716745232861
C          -1.56096725320823  -11.53216360638376    4.46397586225909
N          -1.50394883338858  -12.46359128912125    3.35077798722570
C          -0.12362588908582   -9.68624372509192    1.81887263007223
C           0.93072154355004  -10.42714584730419    1.43284343660932
C           1.51904793750322  -10.29007567386109    0.06769708884168
C           0.75429539829234   -9.39188036384241   -0.85129738372573
C          -0.29008305781140   -8.64793084088160   -0.44405200726114
C          -0.75254865207772   -8.73601060681941    0.89111977768634
C          -1.75510010208872   -8.09431487830557    1.58675458416545
C          -2.65426118515101   -7.06437334990177    1.22068254960743
C          -3.50884333914183   -6.55881882230387    2.14337371231608
C           1.77703502735117  -11.65739465416670   -0.51248993165711
C           0.91478333643620  -12.30141945446154   -1.30039374321946
C           1.16348783248792  -13.59383515717232   -1.87680966822693
N           0.17504273854743  -14.29159730457230   -2.52790354416908
C           0.64788892132316  -15.46857679990445   -3.01030716322882
C          -0.14083133885417  -16.45552714129711   -3.65232890920892
C          -1.46089483064860  -16.35542529220287   -3.94625319905739
C          -2.23113738129293  -17.38904740072303   -4.54480415747108
N          -3.54103601113962  -17.19278939116766   -4.90250426464011
C          -4.04707110797051  -18.32653805154516   -5.43737594512807
C          -3.06124893894908  -19.28584306624914   -5.42770664551328
C          -1.91966319046044  -18.70595111537811   -4.86924402702509
C           2.02569938804871  -15.52607162160639   -2.67074480629317
C           2.31486217403355  -14.34309273431741   -1.94930505110307
C           2.90646750927230  -16.57605408271212   -3.01043779676730
C           4.18791930086317  -16.70083613774773   -2.55531256577863
C           5.11554160379180  -17.69623865085802   -2.91320870552583
C           4.93911133048837  -18.90831436985866   -3.54627172930968
C           6.00795325409612  -19.59489098703633   -4.25678210769289
C           7.35894079001443  -19.37299148467193   -4.16592272870136
C           7.99771200133859  -18.44548984695460   -3.31722415916925
N           8.60743078997989  -17.72451834020260   -2.66198369298465
C           8.32895352704999  -20.08972678295306   -4.89662595102009
N           9.17627425301831  -20.62854347067174   -5.45423735357918
C           5.37604103337448  -20.58863787200226   -5.11789484658230
C           3.99151972432522  -20.61323443779492   -4.84103773247764
C           3.14682547676769  -21.45940017429809   -5.53932153326801
C           3.69000836305326  -22.28051916541425   -6.51630443533992
C           5.05045011773762  -22.26386032888965   -6.78426522696115
C           5.90637672372024  -21.42156983527613   -6.08958408374442
C           3.72537446322161  -19.67485872752897   -3.75951873506303
C           2.61524439358275  -19.70704055494706   -2.95057844741188
C           1.45782950980811  -20.45633924744382   -3.22867078483210
N           0.46161672877024  -20.99128409583817   -3.43317325804307
C           2.50550760434918  -19.01578873626037   -1.72802972063255
N           2.37184700122089  -18.51205745802373   -0.70511964109255
H         -10.77886615517198    2.19047091659385    6.42578487174021
H         -11.66296234927608    2.85805587824756    4.23770597257711
H         -11.57623504847241    1.32332407597227    2.32146461950849
H         -10.61329354664048   -0.92828475208822    2.55914364347668
H          -8.06592293057978   -2.24930695174212    8.18723438515214
H          -6.64835057991652   -4.12197359110132    8.55893552084660
H          -3.79518072674762   -6.04806907588358    7.01029721642840
H          -5.57328681300237   -5.88379677524289    9.49968284518839
H          -4.65450055269109   -7.15331377930280   11.41672599022501
H          -2.73257302039254   -8.57009822699260   12.15630072371947
H          -1.03317779039778   -8.75579297350887   10.07221945890818
H          -2.11697299513485   -7.34069440589572    8.08382284630323
H          -7.04273801929761   -3.29027663114171    4.46409408642877
H          -4.90194322700670   -4.65241796213238    3.56915525354359
H          -4.55019218306279   -7.09458292485397    5.37461527782456
H          -2.79171574927398   -8.50137293714535    4.85347171276549
H           0.46029566988914  -10.95718313759043    4.08837561538317
H          -1.26460077920498   -9.50514772383113    6.07841838172850
H           0.07216763664126   -8.62581421464320    5.30487353670722
H           0.41321859359274  -11.18535611617851    6.66841914186511
H           0.86175590611396   -9.71736798366050    7.24407548876673
H          -2.54541325689053  -11.04659202305398    4.57799160312002
H          -1.35410857154329  -12.10059744557788    5.37590185003031
H          -1.69555458520305  -11.97224675522703    2.48326348277564
H          -2.20087824731661  -13.19203500839583    3.45966903085574
H           1.40501397025037  -11.13849301217237    2.09404131815449
H           2.50864377382240   -9.82428335477907    0.21765119578303
H           1.11602192385471   -9.34374089679071   -1.86759154606787
H          -0.79498589863581   -7.98319084162623   -1.13064857633174
H          -2.63926884465755   -6.68245261199677    0.20993121741976
H          -4.19466517332972   -5.77238426881356    1.86869874260363
H           2.70683190291605  -12.12900825029051   -0.23240162343607
H          -0.03415536985330  -11.83960305129104   -1.54508111930323
H          -0.78233247523457  -13.98695524812629   -2.58655448889100
H           0.36403206643532  -17.37446221390114   -3.90610374413278
H          -1.99947143400641  -15.44082577744157   -3.72502208423553
H          -4.04372744476846  -16.32828852283385   -4.78716102054881
H          -5.06037301139993  -18.38122977319872   -5.78367199909012
H          -3.15490902631674  -20.29380973365102   -5.77832802448378
H          -0.98548328626338  -19.20051425487311   -4.69579942184459
H           3.27119452934922  -14.06382185083372   -1.55873796116098
H           2.52935374785874  -17.29696401460517   -3.72264535691723
H           4.57238517963328  -15.92432623141839   -1.90952279747026
H           6.14492707379500  -17.42265199291825   -2.72031853284673
H           2.08702252439853  -21.47957641654138   -5.34377065667753
H           3.04225149270726  -22.93962991065692   -7.07398453567695
H           5.45328023185710  -22.91301101509673   -7.54675900576447
H           6.95985879729370  -21.42149583590513   -6.31477808055269
