92
 SCF done       -173.851641799587          0.000815716203
C         -11.86408848766327   -9.98459316372149   -7.75793749592887
C         -11.62116251285305  -11.02062955322352   -8.64646699777653
C         -10.47236531735268  -11.79281775693979   -8.54516156815457
C          -9.53596656590470  -11.55002062638697   -7.55246682155040
C          -9.76987235169305  -10.52146217226923   -6.65071374116987
C         -10.93761764919218   -9.73227731459950   -6.75779045661299
C         -10.91334632455481   -8.71824472543642   -5.71730128476366
C         -11.82048904593906   -7.70962403037719   -5.54705838300079
C         -12.99409247388454   -7.56148304577463   -6.31569140869963
N         -13.97544343155999   -7.39480575817142   -6.88776802625250
C         -11.70766034104841   -6.66436402462179   -4.60463761522922
N         -11.66783727528445   -5.76405868828016   -3.89326554324590
C          -9.73521735930848   -8.98036315472340   -4.89712842000814
C          -8.96441024058550  -10.02495161262552   -5.54415527077961
C          -7.70514023555046  -10.46108132851445   -5.22011630378195
C          -6.77185728077907   -9.80216497768279   -4.39988518998840
N          -5.88231399899726   -9.32359467291437   -3.85162349542830
C          -7.11700428202806  -11.62856302568933   -5.74814918112926
N          -6.58775366321906  -12.59424032552760   -6.07620861602778
C          -9.60868833358559   -8.51527257719535   -3.61852153538075
C          -8.66056576600432   -8.85450337632809   -2.68227467478575
C          -7.93421506590876   -9.05111932320884   -1.72191360407791
C          -7.00804302240605   -9.29394344834770   -0.73201182140429
S          -5.35033320759622   -9.67110461363071   -1.12350665932821
C          -4.97013637363600   -9.79682975344535    0.56763390634443
C          -6.07247342965945   -9.55661779568933    1.36769507463807
C          -7.21759817219686   -9.26647750735549    0.63588773879177
C          -3.69209589809450  -10.12450473744172    0.99389059100698
C          -2.57365669115784  -10.42423696719664    1.35341186648871
C          -1.34483868787596  -10.86770650894722    1.84452893831503
C          -0.40909769406449  -11.44286268371206    1.07978624247426
C           0.75907067703268  -12.12910984368675    1.65693323769080
S           2.36834758727049  -12.02206191060456    0.70638141042052
C           1.91236302340954  -13.70036180830146    0.67389125534880
C           0.76404254893263  -13.61619051075083    1.37561809004027
C          -0.31208330134619  -14.55051970925126    1.65340750192940
O          -0.35771106178679  -15.70673034470392    1.31051481631390
O          -1.29321163020221  -13.92248190303507    2.34246313784413
C          -2.53419906697910  -14.60961016859119    2.49442476928722
C          -3.49116374295959  -14.12979107508318    1.51789968974459
C          -4.19101513760248  -13.67896506366311    0.64455533339562
C          -5.06009813392834  -13.27466162832520   -0.36874929793088
S          -6.76338656625811  -13.10835699885741   -0.07996716491073
C          -7.03749345222709  -12.75645031334893   -1.77425655013121
C          -5.84901631779595  -12.74431106594224   -2.47982378544152
C          -4.73983970962463  -13.03355847984400   -1.68802602739785
C          -8.32182850936473  -12.63320838582548   -2.26219539785233
C          -9.47642772709291  -12.63354302207357   -2.65317388073210
C         -10.77130412294412  -12.73188988052336   -3.12438175684435
C         -11.06381459920829  -12.72978085017926   -4.45658897351636
C         -12.29500000667905  -13.02104309456642   -5.08620934354109
C         -13.57132501587429  -13.15501476039392   -4.60001082459080
C         -14.60241912652398  -13.92807748820234   -5.29094754723960
C         -14.63466856760439  -14.29024830051271   -6.61053590395218
C         -13.68388493542802  -13.94286832180564   -7.59253939167290
N         -12.96810044159059  -13.70164042324772   -8.45789700126997
C         -15.67693140516622  -15.04075246054361   -7.19808481660175
N         -16.48493053654420  -15.64595969471622   -7.74358814618892
C         -15.62398980724030  -14.24831355105021   -4.30180457778134
C         -15.33198100368102  -13.55452480603640   -3.10643362293038
C         -16.14052984033138  -13.69257566416512   -1.99064623902974
C         -17.24436285211500  -14.52784625579763   -2.07441976841299
C         -17.53773076243755  -15.20545459654455   -3.24924215091951
C         -16.73479210596772  -15.07402460334455   -4.37273416683400
C         -14.14485046908770  -12.74427610170261   -3.32747068766687
C         -13.80167372832013  -11.63381840543522   -2.60094506169411
C         -14.43661051395564  -11.23773710633780   -1.40582372830464
N         -14.89708130437996  -10.88291922173817   -0.41650468605159
C         -12.82859627273611  -10.71305027134435   -3.02330735630706
N         -12.06374422746896   -9.92396905682567   -3.35488180315604
H         -12.75835157358463   -9.39068332740345   -7.85227170906303
H         -12.33557433140528  -11.23326748239561   -9.42560983616414
H         -10.31000114878309  -12.59631479364227   -9.24581614555457
H          -8.64681338193702  -12.15695066435748   -7.49109069596947
H         -10.38035466668374   -7.85408868257785   -3.24369314049804
H          -6.02824186095562   -9.59082793226595    2.44145127340257
H          -8.17915508213940   -9.05096258107759    1.06643954921832
H          -1.20585774994338  -10.78430260979799    2.91554231037228
H          -0.54747707236400  -11.53711275865773    0.01211805712681
H           0.93093680589141  -11.86995217443046    2.70120384486243
H           2.44282398859902  -14.50810608949723    0.20902878048668
H          -2.88867431904746  -14.40950139512983    3.51040941214542
H          -2.36907346489098  -15.68747925817652    2.35462792218476
H          -5.80109245729208  -12.55664985407758   -3.53692020063280
H          -3.73175754600309  -13.08388039664996   -2.05691386735253
H         -11.53146446862443  -12.90911142248886   -2.37407522618649
H         -10.22716891752378  -12.61908216588865   -5.13378308669161
H         -12.17247686263106  -13.29154659833936   -6.12796129871966
H         -15.91780194144006  -13.17637242833207   -1.07084638963998
H         -17.88129221485027  -14.65145761826677   -1.21214416142317
H         -18.40289729395696  -15.84901084855546   -3.29240035699845
H         -16.97742114320668  -15.61284251585974   -5.27348499686169
