117
 SCF done       -199.624689018798          0.000979383018
C         -12.42642798385987   -4.33862800540277    1.08043081265055
C         -12.85058884668276   -5.30408940059850    1.98117656581143
C         -12.22221636924501   -6.53889680647998    2.05436495135706
C         -11.15422692267065   -6.84672832596536    1.22476906130388
C         -10.71893117126714   -5.89011568565510    0.32251638268265
C         -11.35437844593504   -4.62901452758336    0.25165977760302
C         -10.68824942977941   -3.82147196164048   -0.76091206536445
C         -11.08026157601894   -2.58418527345830   -1.19812262171116
C         -12.20134756819849   -1.88603274647846   -0.70224800277491
N         -13.09534438514956   -1.26310183098642   -0.34129532665857
C         -10.44904159264393   -1.85400530864475   -2.22727926747350
N          -9.98828788259620   -1.21355870013773   -3.06164567136428
C          -9.54159501225797   -4.59111405584397   -1.22078590137539
C          -9.67034554198783   -5.93714871136646   -0.68632812175258
C          -9.04809396891436   -7.06625432386864   -1.14949566329223
C          -8.33370787125409   -7.15118774969577   -2.36195931689280
N          -7.83566963576463   -7.32549108133340   -3.38175035257664
C          -9.16008978280802   -8.33283094516597   -0.53907551820068
N          -9.18723079532711   -9.38195950153421   -0.07343858293418
C          -8.44398908995526   -4.05464124460039   -1.84141318522856
C          -7.23767055886349   -4.68438401083481   -2.02757474680023
C          -6.11555855217251   -5.14000822357595   -2.18328033132407
C          -4.89027885952754   -5.73408846839505   -2.36368097356788
S          -4.60017494003724   -7.38183773089388   -1.85603125790712
C          -2.97229949197608   -7.29990101836582   -2.46058646115416
C          -2.69423930626001   -6.06131529415656   -3.01814924093384
C          -3.76657624975000   -5.18351339710995   -2.96049919721673
C          -2.10963447742328   -8.37859044575737   -2.38010837160549
C          -1.35190634648450   -9.32687062413182   -2.32365281131617
C          -0.43944563101577  -10.37599344844908   -2.31455516487486
C          -0.65177035926206  -11.54479984890228   -1.67507021585823
C           0.25389139197933  -12.66862222589155   -1.64916030172228
C           0.00281306124875  -13.71741677346622   -0.74859943695116
C           0.85461292389753  -14.79323537564365   -0.69891806108449
C           1.96649167059972  -14.86066416709148   -1.55606657157682
C           2.22006683911893  -13.83829857942681   -2.45908141671973
C           1.36808268357883  -12.75453291881567   -2.49583157313914
C           2.67670844519188  -16.09267282837422   -1.29548986828007
C           2.01327218640476  -16.78450050698130   -0.26759408591134
C           0.79450049739029  -16.01535978260444    0.18894848016660
C           0.89292182795335  -15.63321023762169    1.67742443821651
C           2.14887434942945  -14.83322511357524    2.00156674916729
C          -0.49616094767776  -16.82093253559021   -0.05195631842761
C          -0.67082540545610  -17.23944971889516   -1.50687742257037
C           2.49675860833641  -17.98745436131501    0.18536091514609
C           3.64916897125931  -18.53988645142145   -0.39690981107380
C           4.29459767025192  -17.83684391025740   -1.42339759115782
C           3.82228600456121  -16.62131105104024   -1.87237026861867
C           4.14140800157657  -19.80623990567399    0.09435126932713
C           5.04559086565716  -20.58822757534256   -0.52868044123402
C           5.52545732045391  -21.78810824983913   -0.01361258278376
C           5.98816508841953  -22.82377803584810    0.42098325262859
C           6.57157778150491  -23.99758055235792    0.86662988860834
S           7.50668489945089  -24.98059869222020   -0.22564622546481
C           7.87313504807380  -26.10257091609103    1.06354062626298
C           7.28326298973298  -25.71156214147122    2.25239886719049
C           6.54971684972723  -24.53534062226971    2.14056580704739
C           8.66886550008930  -27.20250851489179    0.82579996486247
C           9.39303661278973  -28.14616649773513    0.56296682468640
C          10.23309922367551  -29.20192259568090    0.27319420744425
C          10.72103218212052  -30.05354659169803    1.21757115681481
C          11.53311884578292  -31.18645072068162    0.97713382100191
C          12.32479640762669  -31.48809734327341   -0.10026110166989
C          12.74986331124994  -32.84405280263084   -0.43478727597033
C          12.78598047928177  -33.93628120266547    0.39045002711767
C          12.45615363235834  -33.94643893345727    1.76240759737684
N          12.21413092581783  -34.03988313285375    2.88127492229708
C          13.21950987916262  -35.21663630896025   -0.01505523453392
N          13.56089062422015  -36.28140615499665   -0.27482839143106
C          13.15187445556593  -32.82530711955565   -1.83585824436073
C          13.15857368014205  -31.48723875800655   -2.28886608894631
C          13.48334860753001  -31.18618163696765   -3.60098591193115
C          13.80358831301440  -32.22804122222286   -4.45848403350108
C          13.80659016346048  -33.54230490149687   -4.01365771077432
C          13.48244246559243  -33.85549454345372   -2.70191549871294
C          12.80283786761813  -30.62355812346735   -1.17237037470686
C          13.12143445144210  -29.29501792998643   -1.07189886885113
C          13.68008992271989  -28.53952928717625   -2.12303620963350
N          14.11563320835958  -27.87244454498794   -2.94954866070055
C          13.00732910541179  -28.54276679438070    0.11526980910295
N          12.97053359309832  -27.89356269928161    1.06076753943366
H         -12.92437210452385   -3.38389904087028    1.03774409928536
H         -13.68131662802773   -5.08732796508330    2.63521962024097
H         -12.56747586751552   -7.27301476234763    2.76625710475264
H         -10.67341615734460   -7.80888466844720    1.29371957424242
H          -8.47451207925705   -3.01790758274383   -2.15274131823569
H          -1.73680520658946   -5.82662765968280   -3.44773168582162
H          -3.75366304281362   -4.17774427124059   -3.34096337479271
H           0.47645934098268  -10.19073313073549   -2.86089120714404
H          -1.57024009525884  -11.66270209678673   -1.11330760641732
H          -0.85671724096102  -13.65944724837432   -0.09567392853342
H           3.06914496268953  -13.88896302130223   -3.12424132192585
H           1.55953772219693  -11.96591132249354   -3.20714107245457
H           0.88152127015047  -16.54758580950562    2.27446735002560
H           0.01100129818435  -15.04839547729541    1.94721770765402
H           3.04228968272170  -15.40485319638705    1.75975840650293
H           2.17321261415073  -14.58835755386365    3.06091506414096
H           2.17149372858429  -13.90575282738792    1.43352111405603
H          -1.34980664084893  -16.21300655244924    0.25502536509187
H          -0.47570513004463  -17.71074180346962    0.58093516438577
H          -0.71502642545199  -16.36737210832255   -2.15561240192084
H          -1.59332490169358  -17.80304490143546   -1.62527257241338
H           0.15845587679058  -17.86513339875620   -1.82978486272804
H           1.99572915004653  -18.52368708416839    0.97913342782875
H           5.19513906786245  -18.24025979781076   -1.86043849465588
H           4.33938947477894  -16.09023745534878   -2.65753458818180
H           3.72468543020964  -20.14635364793800    1.03445323156478
H           5.45087977260589  -20.31627380711250   -1.49514369756352
H           7.39286206341161  -26.27571094939124    3.16137865857893
H           6.02038449371351  -24.07022780964090    2.95293937929584
H          10.46090838812801  -29.34603275908915   -0.77670028331014
H          10.38737199686942  -29.91853375636978    2.23781495646383
H          11.44975281779515  -31.95401491678918    1.73604997408698
H          13.47630228439843  -30.16962243155179   -3.95981587445205
H          14.05119283355152  -32.01057637174316   -5.48623985848659
H          14.06042141819639  -34.33715903207602   -4.69824111913716
H          13.48346139679267  -34.88276349543568   -2.37692469259705
