84
 SCF done       -164.506181740241          0.000442651575
C          -2.64442933314801   -0.56970776335506   -4.81058152901024
C          -2.38637587697121   -1.39007282664320   -5.89893800048852
C          -3.03260370859712   -2.60920362126938   -6.04832453992660
C          -3.96531630541414   -3.04116337355742   -5.11652319433626
C          -4.22949419866081   -2.23088262864185   -4.02650409202833
C          -3.56570211373991   -0.99287006234082   -3.86500952654169
C          -4.01575173006198   -0.37187251745415   -2.62536897443788
C          -3.69727274642884    0.88498173786821   -2.18463871035585
C          -2.87039200577363    1.78465854962839   -2.89079424476225
N          -2.21047497312769    2.56442067648350   -3.41364868849330
C          -4.18201467928642    1.46903865904430   -0.99566261887957
N          -4.54633098463720    2.00249562645640   -0.04638842913064
C          -4.85005618526732   -1.35648198718674   -1.94932206499829
C          -5.15427316975435   -2.39881335435090   -2.91798606977050
C          -6.28698413505237   -3.16266557968091   -2.90671792786990
C          -7.27796015834075   -3.03481530192699   -1.90839802152378
N          -8.11686913818735   -2.90033301572908   -1.13779147333763
C          -6.61703007635830   -4.08745347910228   -3.91856234835452
N          -6.91829023997841   -4.84136736160610   -4.72865265497821
C          -5.16084105265657   -1.36035603227823   -0.61575869560139
C          -5.45051720000627   -2.49538448858488    0.15490730581178
C          -5.78554442144483   -2.54032905802174    1.47749026660844
C          -5.68101505975134   -3.78561691886456    2.14197699796739
C          -5.16029093401894   -4.80361736007464    1.40387622742909
S          -4.88440888003511   -4.17080552884696   -0.26701467457572
O          -5.69283849129508   -4.96210369551132   -1.16239544892768
O          -3.48801523578401   -4.10012854428538   -0.60306326972700
C          -4.91031419981643   -6.15603734698711    1.66249220478302
N          -4.55491475099795   -7.00223543389899    0.63307434301200
C          -4.37860965262728   -8.24379246527343    1.14267766123244
C          -4.06557235372966   -9.55289950547909    0.81636987820744
C          -4.08659148232720  -10.27264259332601    2.02716650733131
N          -4.40796816727778   -9.41652967335101    3.06209384506009
C          -4.59729153775062   -8.17406904194364    2.55530934317038
C          -4.93552026767459   -6.87055979633872    2.87850457953300
C          -3.83858115600883  -11.63703379807988    2.27218479477271
C          -3.55031795022005  -12.57545335891137    1.32190840423467
C          -3.30787161356094  -13.90613674624273    1.67239878803170
C          -3.06872314074962  -15.01247919863961    0.91515281790810
C          -2.79806088281131  -16.21324348309924    1.61626070312831
C          -2.77878828406114  -16.13704179120237    2.97656746285926
S          -3.27645719543628  -14.44565601443470    3.40471793214174
O          -2.28261721604035  -13.75039712436064    4.16895720077406
O          -4.61290494743386  -14.46664030358648    3.93838763294500
C          -2.61811201522043  -17.04612625492527    4.02600205881213
C          -2.05187139607035  -18.29500576530070    4.04286387321635
C          -2.29031825750937  -19.26921566972630    5.10477892921575
C          -2.70447956977400  -19.01781248746331    6.38346430792394
C          -2.92256870803217  -17.74067924215032    6.94773416825025
N          -3.09970559403670  -16.75042489946866    7.49971923435911
C          -2.91059863265868  -20.02297097918728    7.35397415826620
N          -3.09678335939891  -20.78937887076253    8.18747099676827
C          -1.97056523481930  -20.57884520907541    4.55073375273772
C          -1.38026859896129  -20.40171952883461    3.27906122098026
C          -0.99475723925584  -21.49555744218042    2.52166883021714
C          -1.19880626955695  -22.76542931477479    3.04070242456333
C          -1.77058250306267  -22.94089032701968    4.29266641577711
C          -2.16156171705907  -21.85344656964150    5.06002653947042
C          -1.27858533597180  -18.97353701420688    3.01252792640610
C          -0.42514320532849  -18.39759796855417    2.10965872406301
C           0.34793836875898  -19.12973082467771    1.18310763671940
N           0.98323302442351  -19.66737141447334    0.39300929812885
C          -0.14657784769875  -17.01848722242955    2.03045091057333
N           0.14270066177751  -15.91364348548450    1.91727231720089
H          -2.12811845693094    0.37076835430717   -4.70898860656611
H          -1.66618500141725   -1.07387857896595   -6.63798527467350
H          -2.80629088348236   -3.23235391686853   -6.90000469880042
H          -4.45927579277050   -3.99226088699825   -5.23331898426400
H          -5.04991916080801   -0.43784185779519   -0.05854821712863
H          -6.13023594500289   -1.66495810430783    2.00573153286665
H          -5.98915822514924   -3.89155559275981    3.16904617023567
H          -4.55069435784620   -6.71998295649272   -0.33477412080800
H          -3.84384569645512   -9.95685506031733   -0.14958132068218
H          -4.47785643116142   -9.69906583184813    4.02549143499474
H          -5.16289686475324   -6.45319520029593    3.83774613476096
H          -3.88271865332578  -11.96580481210216    3.30204454465437
H          -3.49971929128464  -12.30358229832454    0.27581649017399
H          -3.08126061581540  -15.00262968010211   -0.16335845295709
H          -2.66603494726206  -17.13446071136655    1.06861327734764
H          -3.06756904722717  -16.69559229292860    4.94833852949774
H          -0.55700906166642  -21.37350300906508    1.54437628984372
H          -0.90964963929855  -23.62718392419731    2.45902438796756
H          -1.91904398127865  -23.93831349746847    4.67697268605462
H          -2.61053668533114  -22.00921272696797    6.02692477465279
