97
 SCF done       -191.864395019937          0.000576896969
C           0.62350916585716    2.06040536767613    0.10363970873177
C           1.82583404916235    1.85700597146160    0.76408369769811
C           2.15225785863076    0.61491612982452    1.28992060644228
C           1.28226691161487   -0.45919912205561    1.17702400959068
C           0.07793341098817   -0.26939455937036    0.51919648637587
C          -0.25205386514085    0.99354564701837   -0.02514194043974
C          -1.55286297697061    0.90403708748463   -0.67307690974641
C          -2.26276639117297    1.93976530394347   -1.21736281193367
C          -1.81678575273588    3.27847057725511   -1.24631231177889
N          -1.51317428821346    4.38353168135124   -1.30636599257143
C          -3.54868895429340    1.82411561913840   -1.78734783178586
N          -4.59611269700365    1.79624315802093   -2.25653688357088
C          -1.94940934523789   -0.49757483166097   -0.61984009098218
C          -1.03357599409704   -1.17904797152555    0.28471357440391
C          -1.25228434550436   -2.36666324513143    0.92863286006659
C          -2.48587473803842   -3.04895637885166    0.96761407054177
N          -3.47476172351584   -3.60883571746932    1.13066429575490
C          -0.30248836695646   -2.99542958439795    1.76267002610703
N           0.43365276943264   -3.56698890732656    2.43195049441017
C          -2.86619852069313   -1.08217076370615   -1.44981629250655
C          -3.02372092052697   -2.43876830628894   -1.61996548019206
C          -3.17356113482909   -3.62319418492425   -1.87063583397908
C          -3.26908603724309   -4.98280956667913   -2.05887335573570
S          -2.14530387231330   -6.06344513616067   -1.27453509804509
C          -2.93859485576474   -7.43659333925805   -1.99403598804946
C          -4.01489430078051   -7.05133000999470   -2.77986954569990
C          -4.19578856160390   -5.67672320936405   -2.82156161399773
C          -2.47179752277276   -8.71727704194990   -1.77735241369160
C          -2.02094577798686   -9.83148109265576   -1.58132428701202
C          -1.51425706291847  -11.10492448121022   -1.40047282072819
C          -0.33790106321555  -11.32853029569156   -0.75697520085915
C           0.27197410171173  -12.59995119750630   -0.58045339499577
C           1.54630201832445  -12.67885760273854    0.04207359350933
C           2.25251790004291  -13.92211583331496    0.19764874208340
N           3.45962750050913  -13.95263962927576    0.78581222413335
C           3.98501722585167  -12.83214318374612    1.21000761837105
C           3.28977430870248  -11.58603187920260    1.04734543180223
N           2.11066862276774  -11.54117377492457    0.48067695858708
C           3.88567397569335  -10.38248851104147    1.50185567904876
N           4.40086877918712   -9.43043288910317    1.87600325378591
C           5.25516986235587  -12.85912025114096    1.83935067156303
N           6.27886072279296  -12.84594772454528    2.35273981762567
C           1.71084187963356  -15.14210731933691   -0.26774626672687
C           0.43015274122449  -15.08167762877123   -0.85111887814296
C          -0.27873970773208  -13.83159496782427   -1.00750776584906
N          -1.46313603047656  -14.02258327547639   -1.59487512743611
S          -1.65776041758178  -15.58541267634681   -1.90794384370815
N          -0.26290824723058  -16.11612730408172   -1.32852498935044
C           2.44284874792511  -16.31571755946232   -0.18081693639776
C           3.12234709835812  -17.32375787266382   -0.14064436872085
C           3.95551517892346  -18.42194835115352   -0.11672164754019
S           5.59328704507452  -18.26617501825395    0.45708030956545
C           5.90035463028230  -19.94104313255388    0.08176357789236
C           4.77582255679655  -20.56188927611334   -0.43974550570107
C           3.68493317909916  -19.71075747402432   -0.54956893628615
C           7.15267235951069  -20.48680169657542    0.27459358536929
C           8.28202970565498  -20.91736250206118    0.41869998858950
C           9.57622724799920  -21.39060543868746    0.52853256031643
C           9.95153705082636  -22.63571248617049    0.13443842422554
C          11.25904426012214  -23.17657722871575    0.24593040582562
C          12.45879524625879  -22.52454520180215    0.28344531048166
C          13.69268872229390  -23.11152579149948    0.80317133217688
C          13.98071398065609  -24.44004159954353    0.95727794490071
C          13.13755490349051  -25.51107721243569    0.59066771314841
N          12.51348523378919  -26.43348184890387    0.31158132915019
C          15.20647544012496  -24.92752314488976    1.46045955719954
N          16.17791536678742  -25.39056989529187    1.85895238504556
C          14.58379695793905  -22.00244527382035    1.11694383139177
C          14.01142699561840  -20.80561850132284    0.62976701054886
C          14.64706040346974  -19.58942250328498    0.81766385659245
C          15.85920408634757  -19.57472321421636    1.49094877797768
C          16.42855801172988  -20.74990452856498    1.96121827667361
C          15.80033176870362  -21.97303676964629    1.78074875937288
C          12.76487074204668  -21.13410159834499   -0.04479708577977
C          12.16443861336871  -20.37195460847741   -1.00953215402424
C          12.58876846618748  -19.07230807913042   -1.35804683303234
N          12.88365820312611  -18.00877608003008   -1.67199795936909
C          11.10823288055026  -20.81891433917853   -1.83095380366928
N          10.27980958822122  -21.14313918177076   -2.55555674041928
H           0.38729025823925    3.03047960054785   -0.30188017831965
H           2.51754023044434    2.67907678764187    0.86631931891981
H           3.09642496298441    0.47939113026859    1.79474199447317
H           1.54994790157621   -1.41959839303158    1.58634970701497
H          -3.47220270738412   -0.45761972832547   -2.09363278756232
H          -4.62979448259848   -7.76312602330439   -3.30086711289953
H          -4.97228716057106   -5.17936980704004   -3.37462884709854
H          -2.07889798717067  -11.93063242900499   -1.81253787563610
H           0.21822130361479  -10.49111472528423   -0.35779081608005
H           4.77310521642814  -21.59732435366157   -0.72956125050387
H           2.72294056821194  -19.99676214862289   -0.93541485736569
H          10.29130378951403  -20.71030830634845    0.97697575396259
H           9.18323171881726  -23.31513411351073   -0.20979649185783
H          11.28504237903778  -24.25086392791995    0.37717621317150
H          14.20964607879848  -18.66954935514054    0.46457371733112
H          16.36348299282585  -18.63435279276961    1.65221652885920
H          17.37369669497144  -20.71424604220858    2.48096123218849
H          16.25375323919690  -22.87395111261481    2.15992193477097
