146
 SCF done       -206.433743880957          0.000297714822
C           1.40461362551974   -1.24721710895947   -0.39793322109273
C           2.52961577786923   -0.59485529148743   -0.82318320031811
C           2.65477745976317    0.79171756236500   -0.67542673040321
C           1.66230338588481    1.55600739450269   -0.09970584979477
C           0.48041231476922    0.89931565462772    0.33520219430913
C           0.36042112492262   -0.50841797935823    0.18679013995433
N          -0.75398054377344   -1.14686484825268    0.60682184521261
C          -1.71952245161642   -0.44206438113594    1.13381604920762
C          -1.61528082589356    0.97605336499363    1.24927119151586
N          -0.54083955080143    1.60838775072757    0.85906208466171
C          -2.72552650807702    1.79874336643081    1.81645819415620
C          -2.93513720941046   -1.17500006710412    1.59811872426492
C           1.82479660782571    3.00544198235593    0.05803451313638
C           2.38002169755972    3.75709644456923   -0.98229994542618
C           2.55531563822018    5.11076247280433   -0.81896132331137
C           2.18693630221118    5.73924866556571    0.38077948109930
C           1.63303039091845    5.00096845496324    1.41388650602224
C           1.45519398812763    3.64009978191312    1.24368312658570
C           2.50062491313936    7.15205890650676    0.27499704631250
C           3.05754811016395    7.39152055950609   -0.99083920033163
C           3.13224497865402    6.11261337692412   -1.79214032502782
C           2.28375269900581    6.20420505106113   -3.07368352089443
C           0.82522051627909    6.54378890890470   -2.79147032338408
C           4.58614273667738    5.76425168717126   -2.16007402628554
C           5.49236298472304    5.65188230594947   -0.94000893160616
C           3.45711058715190    8.65599768910030   -1.35366338153819
C           3.31743080065558    9.70946235421660   -0.44477158574937
C           2.76078683327951    9.45952483223109    0.81045992498714
C           2.34721322082502    8.19212018958704    1.17742063875549
C           3.77650394531551   11.05680245363557   -0.80319183662696
C           4.45718010326032   11.82480862574559    0.09998734738697
C           4.93778845137029   13.10282822371453   -0.27147959984746
C           5.66604042551611   14.04278954103506    0.43424196474549
C           6.11023874078588   13.93378399257530    1.85721321307710
C           7.64313588686298   13.95891221817811    1.98451070090211
N           8.03989733500858   13.31000417295175    3.22162030150960
C           5.43889122186311   15.01887296726810    2.71649096750991
N           5.66330299928753   14.77573749767874    4.13561923719358
C           5.91347627336602   15.14292629961264   -0.46900237985603
C           6.60440487529466   16.28855989897610   -0.32790058528848
C           6.76474853661193   17.26114692808734   -1.44699609667737
C           6.03929259214801   16.89151543770076   -2.70053476303106
C           5.34925708249095   15.74321582479664   -2.83027491935210
C           5.27312168231859   14.82494246395999   -1.75705480079928
C           4.68668968480480   13.58335635798958   -1.62425120869083
C           3.95514517978417   12.77399407980062   -2.52478622935843
C           3.52311528220052   11.55209497638067   -2.12338007777516
C           6.35108216308349   18.63372197889151   -0.97339674890852
C           7.21616285871011   19.60666952990534   -0.69816284443081
C           6.89958683545379   20.94603171925001   -0.22591848329169
C           5.61929133724048   21.50110397739035   -0.34083600200561
C           5.39044112305527   22.77543793713075    0.12007715155193
C           6.42276954202525   23.52102208680448    0.71325877210671
C           7.69470414069138   22.98406491944280    0.82789538357352
C           7.92110706011878   21.70768653829128    0.34975311354180
C           5.89242698890771   24.81161296950363    1.10824710236660
C           4.53691231789062   24.86430096709890    0.74905609392740
C           4.11180383101106   23.58030324111470    0.07607589807596
C           2.97367539859562   22.89296946012589    0.85120394841486
C           3.32112439781726   22.65061379127992    2.31499844645663
C           3.66561913097537   23.83241635959683   -1.37666485881573
C           4.73841426178585   24.51703980326769   -2.21489168167753
C           3.77905555993998   25.97703662087641    1.02636971249021
C           4.37116731712116   27.06064843169654    1.68001752292295
C           5.72314731429143   27.00513356453152    2.02166821103076
C           6.49029675162713   25.88912735331745    1.74180082396476
C           3.57673606075501   28.24544758498161    2.02128584851651
C           4.06913899899708   29.51997348692410    1.84270604341440
C           3.31664182825188   30.65443086244985    2.17092811914233
C           2.05566584573910   30.53567907654337    2.68894136306192
C           1.51414334777283   29.25430227408753    2.89697947770533
C           2.27315903988814   28.10047792867685    2.56653481239791
N           1.76597379621009   26.87234968240318    2.80173073911955
C           0.56580787056440   26.76955865017760    3.30698950162586
C          -0.20883479731733   27.92943443402104    3.60797669059992
N           0.27048066606368   29.12860684993515    3.41037775648455
C          -1.58914026291963   27.82128761285959    4.16746842781957
C           0.04526571591314   25.39160348359420    3.55503880805299
H           1.28828903208048   -2.31531874154332   -0.49277094918098
H           3.34075361985019   -1.14942426546390   -1.27248790889719
H           3.56708274400132    1.27130300278369   -1.00014195505618
H          -2.93250256146706    1.50209635091150    2.84392211075316
H          -3.63657809273267    1.66020091493341    1.23613049889007
H          -2.44021914699187    2.84676493073692    1.79403102769303
H          -2.79959842271195   -2.23885364353610    1.42563891688068
H          -3.81541766159614   -0.83148529394670    1.05645098747936
H          -3.10278053799200   -0.99922443307880    2.65976451725126
H           2.64640863764814    3.27186736408643   -1.91057667438979
H           1.34905841299962    5.47661320374094    2.34112460202947
H           1.03578189105775    3.04954522172495    2.04262427567977
H           2.33767773572924    5.24804741035132   -3.59908163111656
H           2.71531144768894    6.96784489745916   -3.72492352078970
H           0.37025240987192    5.78283941290531   -2.16123984093478
H           0.26582216281269    6.60052978158086   -3.72281738582473
H           0.74654955011184    7.50186968662038   -2.28224085329860
H           4.97349956907774    6.53645279533644   -2.82850592481044
H           4.59184005744877    4.81763561833187   -2.70535731748391
H           5.51743239632371    6.59225234562092   -0.39397286492029
H           6.50630229338280    5.40453850039502   -1.24689032288339
H           5.13541894881101    4.87500616947365   -0.26729525852287
H           3.90523818549958    8.83834243627750   -2.31992180209483
H           2.63583328688791   10.28211639033267    1.49983610758127
H           1.91367283362872    8.01864082714672    2.15144435041974
H           4.66858519435811   11.44177404883466    1.08778686341187
H           5.79006962893648   12.96053427649478    2.24258941826613
H           8.00093956315866   14.99870560166444    1.90596249387043
H           8.07719623041757   13.39300124155688    1.15284910512152
H           7.59047854919379   13.79238083950542    3.99573618957877
H           9.04489874526957   13.37335397563307    3.34595066516230
H           4.36742265334526   15.05042820235934    2.45234488415162
H           5.86374915255178   15.99819001163672    2.48061371006116
H           5.23815365097601   13.89290306837889    4.40289599316533
H           5.22926768968118   15.50743583719806    4.68891960530585
H           7.08917828446217   16.56173349682240    0.59860154685499
H           7.84208419439849   17.30680381911953   -1.67458690775569
H           6.10626197888726   17.60331859467363   -3.50983056604950
H           4.84817699215156   15.50494794353969   -3.75805557337497
H           3.75142342666677   13.13600727203822   -3.52252518405156
H           2.95197338584292   10.92925713805080   -2.79680506065860
H           5.28635067072452   18.76525485576486   -0.84886682983405
H           8.27648715489860   19.40541682564558   -0.80564581724049
H           4.82687512564801   20.93501522618166   -0.80685258671113
H           8.49687551897728   23.55174436948974    1.27577084155405
H           8.91041029200731   21.27860772621275    0.42895954725615
H           2.74496216323379   21.94037685583632    0.36766396363978
H           2.08289717254340   23.52192365541722    0.79112920830065
H           4.21323866258659   22.03368871865564    2.40014671479071
H           2.50107298727764   22.14021856214226    2.81618005968592
H           3.50536315866913   23.59419199281086    2.82361970724570
H           2.76747215579135   24.45361095941806   -1.36193496647901
H           3.40396534519945   22.87558454343399   -1.83416466607060
H           5.00211568846096   25.48109397600419   -1.78561289285175
H           4.37663980196956   24.67803647307998   -3.22805086917626
H           5.63698303835354   23.90576195826617   -2.26274925679663
H           2.73878241945813   26.02686690287203    0.74719043794976
H           6.16840976522208   27.84160931164986    2.54103137722392
H           7.53286138878161   25.85781530361708    2.02244634430602
H           5.05413982382670   29.64967783455826    1.41781634461910
H           3.74405852982393   31.63263348539036    2.00465484139199
H           1.45597244438872   31.39496631917277    2.94449150889592
H          -1.57278967884081   27.29231922401522    5.11933737662079
H          -2.23341579482256   27.26804322127738    3.48557915696774
H          -1.99409113559044   28.81799471886950    4.31694648743695
H           0.80196590791201   24.66681475540072    3.26767880771309
H          -0.86163303260703   25.21740840472747    2.97724042581716
H          -0.19712402860938   25.26064335250113    4.60859388700852
