86
 SCF done       -171.939308050736          0.000680669723
C           1.40944157333575    0.64131977582351    2.00237592020975
F           2.60291688614120    1.16954961923017    1.71339850007500
C           0.32375164812913    1.47686590860140    2.24638886075266
F           0.46238962863624    2.80331544523459    2.18691796045978
C          -0.90831995584013    0.90871166033253    2.55238681679855
F          -1.96515461824894    1.69438583787727    2.78276123085619
C          -1.04336833917477   -0.47170991922117    2.61303083876302
F          -2.25948456191793   -0.96104248671970    2.88203231582595
C           0.02839467231921   -1.34303327474984    2.37170558052991
C           1.25575404071657   -0.73639317227985    2.06426865005661
F           2.33916046927621   -1.49032275432090    1.84933948821088
C          -0.11665812493536   -2.78287544091410    2.43191333723436
C           0.59959089872584   -3.70911341240335    1.71998764661556
C           0.13292674516444   -5.02044304575694    2.06569618693399
C          -0.90794951745288   -4.80287759124016    3.05688179824307
C          -1.07563398851505   -3.48579792303326    3.27843218249917
F          -1.58540341014273   -5.79529717983826    3.65329151575841
C           0.56420578309340   -6.23062360527234    1.56848446581375
C           0.12252171146140   -7.53327974447632    1.90710659739512
C           0.83509718874799   -8.46695603433734    1.17602529622780
C           1.77943781142700   -7.74122597104967    0.31542632871873
C           1.60985275221196   -6.43466932019133    0.55452535293142
F           2.27531442719781   -5.43613352146146   -0.03539056444581
C           0.68270383273967   -9.86331678442273    1.25321829289433
C           1.41755150344065  -10.76948678908361    0.54207136424818
C           1.28512033135091  -12.16832318740630    0.62408674017063
N           2.10454213577639  -13.00168827747147   -0.11550824121224
C           1.78171901203533  -14.28976379181012    0.16088040107719
C           2.10127391553307  -15.60885608226796   -0.11705448109994
C           1.22639480201397  -16.39373650654965    0.65522463022487
N           0.39310200269032  -15.56416940887221    1.38001685077345
C           0.71336415108970  -14.27283868893795    1.10389293050493
C           0.40452961175392  -12.95473865068995    1.39290450336713
C           1.12983230974041  -17.79849892884203    0.76241575392683
C           1.94969175547189  -18.68146113704347    0.12574369647413
C           1.88205009690040  -20.08630561062888    0.23465623116894
C           2.74924024231828  -20.97519407096337   -0.37158280048823
C           2.38046119793840  -22.30351950604989   -0.02855570783309
C           1.20714299203079  -22.15789696116154    0.83665337683732
C           0.90581121785476  -20.86119133257331    1.00418714890533
F           0.55437423547120  -23.19294189132657    1.38039809842143
C           2.98356763776426  -23.48414569161801   -0.40431941197132
C           2.60688896548639  -24.81653763508359   -0.07693450393712
C           3.49572326912346  -25.69286025422050   -0.65719654684484
C           4.49907076694740  -24.91081879584393   -1.38720739139360
C           4.18364458245739  -23.61685495522704   -1.23788490494444
F           4.85026731755017  -22.57259825910746   -1.75196388753367
C           3.53100808017179  -27.11486233374986   -0.60489970318401
C           2.56636875708825  -27.87726241380077   -0.04402157806279
C           2.50664947351236  -29.31511275335050    0.04284654415535
C           3.58325707191346  -30.15220062731157    0.12213130043457
O           3.47831523779059  -31.49163762484502    0.19237165944727
C           2.26060964587157  -32.08522121326322    0.16647233439331
C           2.21712040894227  -33.47941088820126    0.19396812158781
C           0.99705246379925  -34.11915567337287    0.18361934534725
C          -0.18683750334324  -33.38640200760847    0.14827082809547
C          -0.14421006049811  -32.01126163865632    0.12428021781850
C           1.08094910254143  -31.33995583323567    0.13098648148697
C           1.13835828724176  -29.87160935448689    0.10817428558835
O           0.13902776219251  -29.17532202680596    0.13499157335724
C           5.01424668443167  -29.73007669093112    0.21360845967328
H           1.36371608379647   -3.51084255651304    0.99613214138639
H          -1.76229877042554   -3.03017053785493    3.96269096204321
H          -0.64130340722289   -7.75479066949319    2.62591647764383
H           2.47047328997517   -8.18075148889645   -0.37594138662739
H          -0.07161178706347  -10.22294311115126    1.93891478350308
H           2.17579622750405  -10.40684965190202   -0.13880665104831
H           2.82184746523551  -12.68291839344303   -0.74387102682263
H           2.85367579778660  -15.98006514775135   -0.78187307409688
H          -0.31713272647059  -15.88494058212205    2.01540658042665
H          -0.34461898397496  -12.58089215681823    2.06021197938624
H           0.35138359825011  -18.17493969784202    1.41213596554404
H           2.73423094212005  -18.29801014242130   -0.51181696564687
H           3.57451726894467  -20.70862954192157   -1.00204598447062
H           0.09961529310746  -20.46091029372640    1.58637426405709
H           1.76109964158580  -25.07571229582355    0.52742402969327
H           5.32112477020794  -25.32483604614766   -1.93866365168669
H           4.37983168614446  -27.57501957103092   -1.08920994432559
H           1.66917577094141  -27.39495960819850    0.32115388104473
H           3.14419300009848  -34.02945851676139    0.22363561119346
H           0.96100658786032  -35.19780508281530    0.20390071210370
H          -1.13556508155346  -33.90044929016526    0.14034502650438
H          -1.04267566533753  -31.41373875806844    0.09829241411650
H           5.10327092952052  -28.78103668895033    0.73505111359993
H           5.44990174808496  -29.62944758006344   -0.78005544408321
H           5.57258930341817  -30.49899216311586    0.74440986818953
