112
 SCF done       -200.543646687144          0.000520671701
C          -3.69506180750309   -1.06743749340244   -0.54690907294999
F          -4.97008387263854   -0.96322945786735   -0.92930971808526
C          -3.11288357242146   -0.05729999172213    0.21411704789397
F          -3.82015235897966    1.02110253952276    0.55318877640845
C          -1.79015769096253   -0.18767636613148    0.62714406997594
F          -1.22503595553990    0.77098719441540    1.36405700274325
C          -1.06292933797537   -1.31597378069259    0.26907196243875
F           0.21006246641247   -1.41230874030847    0.66859272736477
C          -1.61559976194680   -2.33635756535070   -0.50896368788435
C          -2.95143991232802   -2.18724087454839   -0.89353705494635
F          -3.55142448762360   -3.16270289740649   -1.58923306057597
C          -0.84206879667225   -3.51988128858220   -0.85937659728812
C          -0.11568396934114   -4.27627613704544    0.01076337613767
C           0.39136403443047   -5.43007101701205   -0.70026246122067
C           1.20066452094371   -6.42234874899117   -0.13531981748506
N           1.84921274394571   -7.24610612365949    0.33341704783994
C          -0.05988179533597   -5.38484395173701   -1.99316180304448
C          -0.83523887501514   -4.18616287086657   -2.15916752798919
C          -1.31610395904232   -3.68466370869597   -3.35226072621548
C          -1.53652473384691   -4.44750416228866   -4.60785490319429
C          -1.69574726637704   -3.53110141314383   -5.61558970410446
C          -1.65740583477711   -2.21657971783111   -5.04472961306546
C          -1.47638690178420   -2.31337400840270   -3.67798491913270
C          -1.78120694820313   -1.02776116408131   -5.77527316232665
N          -1.88280488451516   -0.05820749274742   -6.38178197742144
C          -1.70793622007903   -5.84843987177882   -4.73431730702142
C          -2.07019699129544   -6.68226942389270   -3.72420693486126
C          -2.18490417865382   -8.10789149801947   -3.79213240368223
C          -1.77243957085906   -8.84805763903590   -4.88932097284841
C          -1.84700922764678  -10.24655487629846   -4.86386315218510
C          -1.46548884229658  -11.19796474552755   -5.81368215795338
C          -0.83589213289769  -10.91067637883945   -7.12844248770986
C           0.61621127799842  -11.43948028001988   -7.17072348245109
N           1.36869623472778  -10.65359983773707   -8.11850744538827
C          -1.65981373541464  -11.44372108416776   -8.31628214377603
N          -1.11917934689338  -10.93211633824726   -9.56294709295263
C          -1.70667212827209  -12.49255800136518   -5.22210529550335
C          -1.48356984001912  -13.74507133037224   -5.66956308356840
C          -1.70974581512385  -14.93729243255079   -4.81002918604615
C          -2.32242271326716  -14.63899386263997   -3.47717442296460
C          -2.58729264056169  -13.38720570012477   -3.06003547541979
C          -2.26801670287490  -12.27999161051363   -3.88026913226842
C          -2.35648231695603  -10.91520539532757   -3.67829117008918
C          -2.79410643902221  -10.14250770884453   -2.57959760367855
C          -2.70553295309000   -8.78954883144566   -2.64242563641828
C          -2.52574159149653  -16.01308069849688   -5.49087051675954
C          -3.61768829970891  -15.76857926167655   -6.21609070956903
C          -4.43333376828441  -16.81806344290890   -6.78170811245062
C          -4.61588289837171  -18.05782071426355   -6.25310543407974
C          -5.58273542849765  -18.77528390142912   -7.06217877039333
C          -5.98311923253209  -20.09568791899693   -6.82679281768093
N          -6.31588569494589  -21.17479050608576   -6.61754760780479
C          -6.02244705389855  -17.95153229518059   -8.06100155372835
C          -5.31474320786272  -16.70282870050315   -7.95842825137002
C          -5.36677638898129  -15.67148536139389   -8.86275336926604
C          -6.37818220866963  -15.46874074444342   -9.92762758953516
C          -5.92874212380956  -14.46431829631596  -10.73112875660273
C          -4.66345022913512  -13.99180887366817  -10.21568572351845
C          -4.35053782673575  -14.68299502709413   -9.07277804368080
C          -3.89212927340612  -12.98538259710265  -10.80224782290554
N          -3.25313907589028  -12.15651227629434  -11.27769997661993
C          -7.64666275502321  -16.13279885385551  -10.00324380716308
C          -8.34689758624299  -16.23628940953465  -11.14953745730014
C          -9.60887491031744  -16.89339897481189  -11.38894003263877
C         -10.58911706640267  -17.12012340488280  -10.46487603223022
O         -11.73926183889679  -17.75621915392248  -10.74643754419166
C         -11.97280331262383  -18.23371356376082  -11.99342298664625
C         -13.16254158620109  -18.92879812140120  -12.21090110461578
C         -13.44040797045595  -19.41744675525304  -13.46878067693938
C         -12.54718261671151  -19.22050253598093  -14.51939108256322
C         -11.37478226379485  -18.53269221804654  -14.30578286202008
C         -11.06933884166152  -18.03086640181172  -13.03805361955735
C          -9.82107037498736  -17.29616751571237  -12.79629212188882
O          -9.02545705013210  -17.04264715137624  -13.68432289640401
C         -10.57541507694047  -16.66266938008573   -9.04152907547814
H           0.04878162481186   -4.08526083435757    1.05454092723903
H           0.21125249537748   -6.06098303344067   -2.78025425756031
H          -1.88257877580625   -3.73851458481990   -6.65247659023888
H          -1.34069454745091   -1.48520959302535   -3.00832463662679
H          -1.61140314786369   -6.23225382797225   -5.74199794188445
H          -2.31271190047283   -6.24322098198459   -2.76519238375234
H          -1.36872777501561   -8.35429375331012   -5.75962356651253
H          -0.76226662204235   -9.82554096632547   -7.24746862124411
H           0.59739481798285  -12.51750548858397   -7.40111072222398
H           1.07333708599016  -11.31668150429921   -6.18201590505512
H           0.92768076713759  -10.72798278322510   -9.03213248907906
H           2.33136882079870  -10.96217226979539   -8.17645236757862
H          -2.71947302816432  -11.17630399887650   -8.15629744091380
H          -1.59971338215950  -12.53454745466866   -8.35585318960224
H          -1.26839810941088   -9.92894371724636   -9.61771671089195
H          -1.60810282055243  -11.34938020981176  -10.35171649875670
H          -1.09305664776158  -13.94115194688108   -6.65781758126281
H          -0.71118217435354  -15.36762138250077   -4.62611752594329
H          -2.54912282597214  -15.49482050883076   -2.86009760377546
H          -3.02867809851823  -13.21080974742249   -2.09019224765663
H          -3.18121374387789  -10.63401930136095   -1.69967400880054
H          -3.02550366638224   -8.18656141211791   -1.80520595057722
H          -2.20456321536161  -17.03082226777860   -5.32506826032825
H          -3.93621481828006  -14.74784929741380   -6.38242535500381
H          -4.16633086049806  -18.46095134963018   -5.36528308470733
H          -6.68172963950087  -18.23154443110897   -8.85913221960077
H          -6.42307362465971  -14.04158034161198  -11.58454693511071
H          -3.44259307802906  -14.58756483462927   -8.51040128629572
H          -8.01194463418328  -16.56569186993095   -9.08613682571042
H          -7.89103765865307  -15.87899948293356  -12.06477977714011
H         -13.84257182935832  -19.07021031721544  -11.38580252595261
H         -14.35947616850057  -19.95710993843259  -13.63926049813462
H         -12.77773638304117  -19.60879676122764  -15.49934554782214
H         -10.66168407598401  -18.36218819601272  -15.09790626941997
H         -10.09605754051967  -15.69128194455855   -8.95328183858866
H         -10.04681008625955  -17.37776871366238   -8.41159708129037
H         -11.60164394221270  -16.60095081459945   -8.68559844370440
