106
 SCF done       -190.934263801238          0.000502775197
C           0.37421664282354   -1.46664950573452    5.87170197577318
C           1.60053442977753   -1.62895375164020    6.46249560607247
O           2.08104628866125   -0.77504623419436    7.40706664712815
C           1.28338737705853    0.31554008249323    7.80221393363161
C           2.47003565068132   -2.73917150385785    6.14601836402445
O           3.69288454832081   -2.88667935059576    6.72092891437501
C           4.49781335767567   -1.77019507705878    7.04693723953837
C           2.06926981252760   -3.75195557500364    5.27647668964770
C           0.79203522680767   -3.58678372198974    4.67722899759584
C          -0.03845798677984   -2.44616316711804    4.95755396200258
N          -1.13685653761830   -2.56979513426629    4.23888426631778
O          -1.00259160199325   -3.70977596854746    3.55293358832071
N           0.14996601605641   -4.33363184012454    3.80495248636903
C           2.84700617553206   -4.91227632437675    4.94097647491366
S           2.25700431413700   -6.00359688991492    3.71862120095427
C           3.65065921380321   -7.02676537144317    3.89174782537839
C           4.50709036607936   -6.53316194636802    4.85525377382211
C           4.05398259316466   -5.35389007827143    5.44297716582056
C           3.80588797899211   -8.20375139989269    3.10900771608066
C           4.88176566444160   -9.06627790430524    3.06685332638154
C           4.70664653406958  -10.13204546857550    2.18506632605708
C           3.49092237065570  -10.11261077225610    1.53513722040434
S           2.54833319496067   -8.73352352615682    2.02849805300769
C           2.98338280095847  -11.04161973216777    0.59087606659645
S           3.94687952049226  -12.38819446108310    0.04620186247157
C           2.65649603137696  -12.95840465047536   -0.98286270571401
C           1.55978452765735  -12.12570087493815   -0.88221912100070
C           1.74247367319122  -11.05526394518351   -0.00845319705247
C           2.77808677705257  -14.12350649352152   -1.78218287188296
C           3.90231237706310  -14.87105952923045   -1.88541386323672
C           4.04296913274169  -16.04745347398034   -2.66552965560532
N           5.26128197448476  -16.69491551257476   -2.74517752963527
C           5.12266689677607  -17.78884843040755   -3.53880328748708
C           5.79688106092981  -18.87967876789763   -4.08089626338790
C           4.85168424903522  -19.58644711695565   -4.83125822677245
N           3.63239142189013  -18.93950146935156   -4.75076903971946
C           3.77408920993676  -17.83745052771006   -3.96852745218161
C           3.09992212503537  -16.74678339623084   -3.42561938426622
C           4.98443139136996  -20.78757731506207   -5.57510514322944
C           6.14207238777398  -21.47103047092811   -5.74612767289316
C           6.26919169598289  -22.69302457991789   -6.45773690960172
S           7.84749120335525  -23.41693026241318   -6.63389720159457
C           7.18843710335975  -24.76841105515701   -7.51177898574471
C           5.82226309389736  -24.63809959275741   -7.64778152992498
C           5.31040001762105  -23.48162013651632   -7.06383314533608
C           8.01901634188004  -25.81949234819860   -7.97760889295082
C           9.39145955212664  -25.92448160455397   -7.90107418418222
C           9.89128871852711  -27.10125242603084   -8.45744474807115
C           8.91183694866881  -27.92773244487591   -8.96816238352928
S           7.33522142750114  -27.21850626676219   -8.75685700252222
C           9.06725272451200  -29.19675770879492   -9.58882902104577
S           7.68626380271941  -30.14589038460103  -10.05296332060253
C           8.70486464538616  -31.42116009544275  -10.66342476396309
C          10.03594248818387  -31.09205502294351  -10.50302732673452
C          10.24194048605957  -29.85254743927442   -9.90033040285211
C           8.18055892094102  -32.61390254245399  -11.23245168527453
C           6.86219001885287  -32.89761315274394  -11.29460225612127
C           6.23587732756997  -34.06623211678586  -11.84573952866746
C           6.82454259801786  -35.02609292644212  -12.66468722517254
O           8.13986817414094  -34.84957743763012  -12.96254443277375
C           8.65593656070131  -35.20874355625111  -14.22981989793886
C           6.08450368026136  -36.17734295500760  -13.13122980681316
O           6.81621197629539  -37.07703844738837  -13.84380909919517
C           6.18271690597356  -38.24126368404771  -14.31713383202346
C           4.75463718429136  -36.35557373899314  -12.85115273693004
C           4.12095043544803  -35.38352692624093  -12.06254901679824
C           4.85722258746938  -34.25688645255394  -11.55429423075419
N           4.01902604279568  -33.52685668602118  -10.84854312131407
O           2.84020144533995  -34.14888159877317  -10.90878504159965
N           2.87876162077423  -35.27268518224718  -11.63467235952261
H          -0.28132687627341   -0.64398517779963    6.09235911654658
H           1.86062550965475    0.83518943887769    8.56536477709384
H           0.33280911128898   -0.01797851131445    8.22892626373507
H           1.09085422340226    0.99537540217665    6.96665916636914
H           4.40649928051441   -0.97414865260685    6.30599341372875
H           5.52185854489328   -2.14674672172024    7.04563394633552
H           4.25839532488804   -1.37646875725791    8.03646310011196
H           5.42645476045333   -7.01707951637774    5.13054616611811
H           4.58256920852235   -4.84251239882335    6.22329968470961
H           5.76898910189696   -8.92270695037842    3.65634355878112
H           5.43618624599390  -10.90500635973632    2.01824904280025
H           0.65316494569321  -12.29733495338195   -1.43521501250283
H           0.99926118869784  -10.30455505003376    0.19591581491768
H           1.89321332825218  -14.40095694624083   -2.33737120259414
H           4.77943942282505  -14.55623403876045   -1.33184499602266
H           6.10030980135377  -16.38317147779779   -2.28774204435588
H           6.82637241975495  -19.14666540936111   -3.95591423083823
H           2.79231380267327  -19.25093544428653   -5.20639427123983
H           2.06894524481638  -16.48239738954351   -3.54462318970780
H           4.07639022234724  -21.16665584097336   -6.02572254553300
H           7.05235724259709  -21.08057823030912   -5.31484998306344
H           5.22557047675921  -25.37273683996189   -8.16002222473519
H           4.26558045943979  -23.22955497135069   -7.07589124275626
H          10.00237152665058  -25.16115264737186   -7.45212995590856
H          10.93675397748327  -27.34927724494245   -8.48198420337503
H          10.83331541828655  -31.74354709770774  -10.81497636108814
H          11.21389014333222  -29.43984480965007   -9.69923985583182
H           8.91237519220909  -33.31289097596802  -11.60679324735147
H           6.15962448261510  -32.19717659353533  -10.85908774259159
H           7.92906731637760  -35.03895217678376  -15.02599757375944
H           8.98145047460727  -36.25058791363307  -14.25027254854475
H           9.51702321767227  -34.55687466944922  -14.38481274588046
H           5.79116560940533  -38.84647733617817  -13.49427857365495
H           6.95622228000150  -38.80017701464863  -14.84149737648081
H           5.37261904777811  -38.00218752897867  -15.01273551714942
H           4.19083540684275  -37.20567382572723  -13.19043758532408
