122
 SCF done       -226.932646993614          0.000934976492
C          -9.41896023383951   -1.80039682635242   -3.74136457582561
C          -9.62809974572910   -0.45915564014662   -3.57548586153368
C         -10.63607885088458    0.08848804120287   -2.75367517065744
N         -11.43790770156801    0.58131054913727   -2.09763889152782
C          -8.79736610636715    0.52997291801869   -4.14038106160949
N          -8.12564186623920    1.36831446310939   -4.54525973447163
C         -10.12378776965201   -2.87970567701290   -3.06771056697804
C          -9.41313740690241   -4.09136017574212   -3.26937236024356
C          -9.83054596276637   -5.28643425071798   -2.73680580839558
C         -11.01089797039408   -5.28979364211938   -1.98564851714937
C         -11.71700969579965   -4.07557065431913   -1.79630490581635
C         -11.29021476816431   -2.86440702179965   -2.32347928272206
S         -13.14762652972806   -4.31065894378622   -0.83944650344172
C         -12.78419216990636   -6.01073901513920   -0.70622702879060
C         -11.65007670934997   -6.38572808655640   -1.34567681810056
Br        -13.93514594592189   -7.12818564825674    0.26268876770238
C          -8.21031680957831   -3.82385908195237   -4.08617148119012
O          -7.24914940022503   -4.53295529607194   -4.23633890327975
C          -8.39315078235467   -2.41829096186579   -4.57066734081143
C          -7.78007713970030   -1.89178549948755   -5.65128851417207
C          -6.97562048676634   -2.66909970287507   -6.55566374118387
N          -7.39919291090524   -3.84103505553269   -6.98399553452606
C          -6.47894201019701   -4.26593348571347   -7.88303707615351
C          -5.41593371278648   -3.27698946595407   -8.04708418361326
C          -4.41663413358201   -3.73538667867713   -9.02252894020693
O          -3.41813198393018   -3.16675541182307   -9.40658567678478
C          -4.94519402883689   -5.05964891931642   -9.41519574249815
C          -6.20930746196236   -5.33910459507707   -8.69865433037629
N          -6.69655113358837   -6.55540444863639   -9.04522852658407
C          -5.83262364882691   -7.03816919792108   -9.90427715821984
C          -4.71152447745203   -6.15835340546681  -10.17613201349032
C          -5.71010195781604   -2.24028382078096   -7.19272442400398
C          -4.94322723031746   -1.06131433303430   -6.99229163084476
C          -5.12450229649202   -0.14115012699846   -6.01933794256637
C          -4.35036495108477    1.05876308311234   -5.84507460826616
C          -3.16413988438674    1.29175191025770   -6.51750710525943
C          -2.46751052031893    2.49188662109307   -6.31561079585575
C          -1.27153044499749    2.95645886138503   -6.86853273548770
C          -0.42820562065074    2.24361317823632   -7.85892161751745
C          -0.30416126015614    3.04686660456375   -9.18856237483812
N           0.07514603074009    2.26143039907939  -10.33160678198243
C           0.95630803700270    1.90069614890763   -7.27867988098151
N           0.79627063465867    0.86492470180666   -6.27768533911370
C          -1.03654348573328    4.26674992696183   -6.30988100608740
C          -0.04809577213326    5.16302308604772   -6.49915342360453
C          -0.06979526443767    6.49960549472826   -5.83289863154701
C          -1.18183871469773    6.69832162818192   -4.85938125462339
C          -2.14946185979008    5.78214806760284   -4.65983024904633
C          -2.13457652567734    4.56294896370837   -5.37490221152165
C          -2.99660470258801    3.48127160354351   -5.39188556682723
C          -4.20528690096055    3.21758248516704   -4.70983421730076
C          -4.85068723899967    2.04308266441932   -4.93100122255803
C          -0.12700339234448    7.47961476623880   -6.97853669619089
C          -1.26329801785467    8.01109045429926   -7.45023688548533
C          -1.26344011134755    8.89221350457611   -8.57551982145647
N          -0.13781725089185    9.26903040829691   -9.16544567757412
C          -0.50350002407981   10.06810115606006  -10.18458115723114
C          -1.96327609677444   10.23401516138205  -10.23973874084800
C          -2.33959559444925   11.08924612112818  -11.37892459815145
O          -3.44680213720602   11.46156966197203  -11.71295760383619
C          -1.04327314596605   11.38735102741043  -12.00302892701387
C           0.05371464620611   10.75885512323224  -11.23631499752027
N           1.24962450680507   11.02131357153058  -11.81064889959572
C           0.96973843629574   11.74762396165447  -12.86888626116727
C          -0.44161386991838   12.00738544561884  -13.05208830654481
C          -2.46720342773472    9.46901712377733   -9.21259803700091
C          -3.81641167459684    9.21904836222151   -8.83815822630397
C          -4.85893304410565    9.77881132227319   -9.49874017215609
C          -6.22057893645778    9.51568326284771   -9.20908872975550
C          -7.26091242048092    9.82888172032536  -10.02722456678360
C          -7.25815628308052   10.30973516553918  -11.39591477192366
C          -6.33029127336204   10.01448203355867  -12.35810695958391
C          -6.40576581638554   10.48183136799197  -13.68699166549795
N          -6.43060548881745   10.83996782672342  -14.77684944109530
C          -5.26602137283315    9.10316760659011  -12.17948166436282
N          -4.44324411046331    8.30562767250978  -12.11761926613789
C          -8.54484105623193   10.95943286593030  -11.62139796373026
C          -9.39709551465505   10.67618234813904  -10.52284584898558
C          -8.65513669034322    9.89162698107263   -9.51499359418216
O          -9.06780978423836    9.43924409166176   -8.47210162330312
C         -10.69971077044717   11.11078529246829  -10.47066507350183
C         -11.18017399580668   11.86607413975811  -11.54490357360870
C         -10.31645497581436   12.15580043683388  -12.62867609021426
C          -9.00122357350080   11.71174520770460  -12.68649154436659
S         -11.11265783781882   13.10935768472206  -13.84246279204746
C         -12.57644120751303   13.10181594035744  -12.89424287448662
C         -12.47577951909291   12.42324252214408  -11.72720655426465
Br        -14.09790038092325   13.99119114745132  -13.53461185419738
H          -9.26835273134412   -6.19205254888063   -2.90077834372532
H         -11.86015479274225   -1.96496255588509   -2.15772082807621
H         -11.27871329757513   -7.39394519190747   -1.36675162788446
H          -7.94892016181621   -0.85939282101186   -5.93360394799253
H          -5.98932012414923   -8.00689587509211  -10.34620607702161
H          -3.90039325946405   -6.37157447128254  -10.84398301098554
H          -4.14267153069884   -0.94347673534270   -7.71082016237518
H          -5.92310302763975   -0.28254812438065   -5.30253628368627
H          -2.75771760160484    0.54778597330326   -7.18426298336398
H          -0.90991609997995    1.28858525942495   -8.09367865984370
H           0.43398792367813    3.84320561288248   -9.07144314366221
H          -1.26963488196791    3.50892849810928   -9.40906337696120
H           0.96995879492963    1.80604172587084  -10.19811038040988
H          -0.61837985195193    1.55463085176221  -10.54544340512850
H           1.43323813038878    2.81761438674849   -6.89482867288787
H           1.59317454490634    1.49413733011399   -8.07021254122278
H           0.24365337359626    1.20529759263856   -5.49800453859222
H           1.69320692951987    0.55435516516104   -5.92405199553771
H           0.77165939145449    4.98891830977314   -7.18009597898857
H           0.88880228258566    6.65458403349741   -5.31781361366562
H          -1.18419642280763    7.64079283639666   -4.33348664130832
H          -2.94491526914333    5.96322198501564   -3.95176418662235
H          -4.60524199557713    3.94944741932262   -4.02428310261721
H          -5.78487560954623    1.83671688907943   -4.43080916028226
H           0.80225463787548    7.72376892149236   -7.47262083997626
H          -2.21253042136694    7.77501724805238   -6.99082763692256
H           1.76016718272462   12.09709156619945  -13.51025758080437
H          -0.87484287698569   12.57113491825358  -13.85432969250703
H          -4.00166323713514    8.51228353958214   -8.04014840650229
H          -4.64789940280815   10.47652311879615  -10.29754382357839
H          -6.47523681098806    9.09077785624019   -8.24404496436707
H         -11.32967493939663   10.87443340293354   -9.62744481727585
H          -8.37615505004668   11.96056252862808  -13.52801491033274
H         -13.28028310562217   12.31835253727681  -11.02241270227816
