138
 SCF done       -259.375635760147          0.000501415862
C          -3.46218866090711    1.84422973557706    6.70020194791803
C          -2.80059234200716    2.93630364569703    7.18665513626221
C          -3.39445719109379    3.92150275401275    8.00401004748348
N          -3.83248545447667    4.75067890448976    8.66505278467210
C          -1.43437090458183    3.19245499987963    6.94206299131559
N          -0.32929129775936    3.44285742206285    6.76159503325119
C          -4.86283846643728    1.50514872848855    6.91213805080302
C          -5.11366770536480    0.20918713840344    6.39155614601284
C          -6.35733755867751   -0.37130331150280    6.41101410173837
C          -7.40806025802139    0.36611585254955    6.96025558346391
C          -7.15097579281087    1.65674999220201    7.48587373235917
C          -5.89143220610948    2.24060176606040    7.47545897113087
S          -8.59204270258494    2.37582860960581    8.13661062967423
C          -9.49037365426875    0.94433210268287    7.70714146500424
C          -8.76862170370873   -0.01662055050066    7.09136983958853
Br        -11.28978618761694    0.80558563122376    8.16177653239576
C          -3.87400839627426   -0.33310021280304    5.81846555425464
O          -3.62642501222676   -1.47138437462993    5.49756365975442
C          -2.90654278858436    0.80970974695086    5.83603453130462
C          -1.80759046273831    0.81515344785300    5.05564013158012
C          -1.70300980263775   -0.15322612551566    3.98156692700020
C          -0.70793982963728   -0.98525659066124    3.64298038722000
C          -1.11919033758402   -1.79829730727774    2.44860226465675
N          -1.05588799921926   -3.24865648043475    2.82586670160191
O           0.04794139369887   -3.70007704692273    2.98020294542777
O          -2.09141531133386   -3.84452861036918    2.93694699660866
C          -2.50265517394974   -1.28994298464683    2.14698657976331
C          -3.24612688815278   -1.72142940338461    0.91600939055920
C          -2.36512067044759   -1.58954014182082   -0.29219447625289
C          -2.22404356276769   -2.77821317198067   -0.90308866732941
C          -3.00881984212198   -3.76594195084630   -0.21157690067429
C          -3.61513525965443   -3.18100687377640    0.84639747675633
N          -4.57308229889364   -3.80273855369871    1.67898228965725
O          -4.69878667935016   -5.00430142581341    1.59107356287773
O          -5.26221935842865   -3.08455635412661    2.37983620937358
C          -2.83444345880656   -0.33049970001140    3.03480333010546
C          -4.02552943911786    0.47941971530962    3.17409690988425
C          -5.27858787308447   -0.00509813577532    3.16851269287779
C          -6.47822990243380    0.72096502805723    3.51733109626021
C          -7.67328780199337    0.03776051941300    3.53237190129103
C          -8.86486816780167    0.67807778228618    3.93150840212506
C         -10.17747198383294    0.23031172284880    3.99777362158860
C         -10.64945278738751   -1.13223524672550    3.60353214234497
C         -11.25752746075164   -1.92374236791971    4.77391627240494
N         -10.21462936723218   -2.34139630725678    5.70215149740544
C         -11.60788100188578   -1.09448556326053    2.38910886722625
N         -12.97955768238319   -0.77173679311041    2.74825756636404
C         -10.97754506097767    1.35406837831291    4.42804453402508
C         -12.30920602479389    1.50746198311341    4.56662134214512
C         -12.91503535853361    2.81995798126007    4.93824346704769
C         -11.92860474917114    3.91784756585725    5.18300954424755
C         -10.60092962558850    3.74442656928394    5.05938620208372
C         -10.07589138651887    2.49210285736896    4.65656128657902
C          -8.79920778320143    2.07286114106264    4.34839632410977
C          -7.55645208203871    2.74731192311696    4.34014373154854
C          -6.44277933297650    2.09639533475525    3.92400611218563
C         -13.75238558476732    2.62730139578326    6.17456876940679
C         -15.08185524309254    2.64359040393726    6.23091028679082
C         -15.80142555633482    2.42033775425480    7.46723276700622
C         -15.35493571070734    1.79429498306964    8.57444784040544
C         -16.43371959036567    1.78113547583624    9.61562032237267
N         -15.94624068264022    2.51964300478109   10.81651956471089
O         -15.53252370143823    1.85262597251644   11.72836843074134
O         -15.98751054445988    3.72177904882133   10.77766696277726
C         -17.57456071451137    2.48374195318865    8.92772787286283
C         -18.80702936006020    2.84625580258710    9.68940183552557
C         -19.20506521592240    1.87192778474072   10.74667103099274
C         -19.31805588386090    2.49002974070388   11.93815081916579
C         -18.99806150440658    3.88055317541368   11.78902160274360
C         -18.67211048748745    4.11557903888058   10.49539843811884
N         -18.32891358674126    5.35767221597656    9.93704503276139
O         -18.22708419537802    5.42221690932045    8.71793703455718
O         -18.18160936269927    6.30016362581059   10.68336980442452
C         -17.20120861280555    2.83522518346304    7.68139835616165
C         -17.95634594780822    3.53289146071901    6.65369549728228
C         -19.06320360990404    3.05560044234826    6.07115875928169
C         -19.67662517774639    3.66526270255827    4.91927126239355
C         -19.86894840907601    4.97634924138729    4.66012700324720
C         -19.81991507524080    6.15004322636273    5.51746653805853
C         -20.17389018325179    6.18263892363125    6.83595902249846
C         -20.27609666042034    7.36760686291080    7.59610981669657
N         -20.39756066918502    8.31160047606271    8.23515357918642
C         -20.59609456341830    5.03506715510378    7.52905969944004
N         -21.01639154177582    4.13149954446449    8.10145994419216
C         -19.64512860056680    7.30843632933845    4.65415648967256
C         -19.84224760274192    6.90609958799661    3.30764923626983
C         -20.08080676019446    5.45035132720154    3.26010564053643
O         -20.33609076750885    4.76671875411424    2.29669107574607
C         -19.79713121370172    7.79822829653057    2.26258651742471
C         -19.53476270357523    9.13938039287644    2.55968052434025
C         -19.32101264810634    9.52497352915384    3.90642726937197
C         -19.37466005706143    8.62734909909521    4.96510028195180
S         -19.00278707028869   11.22667380568783    4.04141209483646
C         -19.16490934696497   11.39818123548142    2.31354771487309
C         -19.43994339564890   10.24101729505363    1.66584701604415
Br        -18.95297100743068   13.08708378800143    1.52722234770658
H          -6.51579379596747   -1.35871306445693    6.00908489978237
H          -5.74295406236204    3.22719741214197    7.88297791247990
H          -9.18572773927198   -0.94015126369415    6.71238840759301
H          -1.05242047929091    1.58625273051588    5.12007567718683
H           0.21930282089848   -1.15124105833464    4.15778503841917
H          -0.42280090584666   -1.68039832222584    1.61113617059150
H          -4.14367779461715   -1.09949932641137    0.83684479825985
H          -1.90140181111907   -0.65824459084851   -0.56066906881997
H          -1.64158741317704   -2.98463105274295   -1.78208442738380
H          -3.11384556448482   -4.79486183481951   -0.50283913722465
H          -3.83344102820880    1.52162216770874    3.39821927502534
H          -5.41736237341768   -1.06136793279099    2.98400518341799
H          -7.68691218833009   -1.00035052201748    3.23271046189937
H          -9.76584813395491   -1.68715779914976    3.26847499658889
H         -11.80905507521605   -2.78589342800145    4.36209018138538
H         -11.95905253549360   -1.29637578554199    5.32769817609360
H          -9.54353403046947   -2.93866476495444    5.22760393961792
H         -10.62329690680337   -2.88094730563778    6.45889732077814
H         -11.53304722383555   -2.06540961944136    1.87175377354757
H         -11.25311407337922   -0.32302402139406    1.70093368571845
H         -13.51845863136353   -0.57247738565111    1.91334239354711
H         -13.41741335825314   -1.55758142519536    3.21672995265013
H         -12.99183498007888    0.69617411882843    4.36192273463095
H         -13.58441322530466    3.11271473871072    4.11552193395802
H         -12.34537331641330    4.86689809720371    5.48373490089276
H          -9.91854783643739    4.56176929962032    5.24479958837735
H          -7.50958726519610    3.78024723279349    4.65463844361036
H          -5.49946828167725    2.62058764233668    3.90563317245491
H         -13.18505407614859    2.47187623628832    7.07732877473028
H         -15.68105120328262    2.83740078204150    5.35067833432599
H         -14.39305869400999    1.34604274174085    8.73694450777230
H         -16.68047814555752    0.76907042141597    9.94983097900762
H         -19.63961047771222    2.99480220127339    8.98216177818876
H         -19.37455378449353    0.83146478406119   10.53898594527919
H         -19.60385770495933    2.03786513578027   12.86961581706308
H         -19.01929789584853    4.61563559095406   12.57221618530592
H         -17.50836335487597    4.45289269311058    6.30077741306972
H         -19.45124477895397    2.08748561141229    6.36177770971693
H         -19.93422946034450    2.98660593264074    4.11058575420220
H         -19.96144264580887    7.47297057839704    1.24726635513776
H         -19.20063823297492    8.95619559512029    5.97655566593561
H         -19.57166508919505   10.16563841875237    0.60195489165297
