84
 SCF done       -180.997208935191          0.000649364160
C          -2.79787637539974   -7.33769417402338    0.90454055779354
C          -2.62025569451452   -7.38412261985042   -0.47252161373615
C          -1.50847295423491   -6.73129806098594   -1.11495008190235
N          -1.33911327424963   -6.87032481981030   -2.45408609861324
C          -2.21149469420872   -7.53864286032405   -3.12574282338814
C          -3.34643639507897   -8.13641667048426   -2.49582176994339
N          -3.52622644498080   -8.06610739069495   -1.22312921175572
F          -4.24841738385851   -8.78669733903214   -3.22384241980070
F          -2.02804431731040   -7.65524025534639   -4.43909574321745
C          -0.56661328308377   -5.99482736772599   -0.37579219007304
C          -0.74928619449275   -5.95508643861043    1.01666258167037
C          -1.86520642967039   -6.62965629853238    1.65195652326030
N          -1.84885133684112   -6.45818902891697    2.98162113536356
S          -0.59006377401924   -5.55261968473157    3.36640376746364
N           0.00725508603307   -5.31014539225217    1.90802765815932
C           0.58211469777543   -5.36861885478314   -0.98691021574531
N           1.76543636252696   -5.43491398507287   -0.42039861151666
C           2.62584049981942   -4.84684753256426   -1.28829913012483
C           1.92861802207504   -4.39047746605282   -2.49450057684374
C           2.87379211050245   -3.76632515085832   -3.42932941555285
O           2.66102849836687   -3.31447635706709   -4.53623763757156
C           4.15327267705987   -3.84610931337151   -2.69651167012798
C           3.95548039534852   -4.52334597911546   -1.39750026229662
N           5.12427572810284   -4.58923856272906   -0.71101792337152
C           6.00679507375727   -4.00245247335411   -1.47902709429569
C           5.46606287666446   -3.50616429378120   -2.73195716694406
C           0.59778062173425   -4.67860753971201   -2.29896962749218
C          -0.53906297750314   -4.37202206431751   -3.09021307829095
C          -0.43342662759344   -4.01353452003150   -4.39557542288011
C          -1.51588015263008   -3.73128591534428   -5.25993984249539
N          -1.28262301278230   -3.43753894295446   -6.58554031608428
C          -2.47287077477620   -3.23132763722502   -7.20285777002084
C          -3.06942915526199   -2.92915757890381   -8.41423703994386
C          -4.45800136785261   -2.90169265880612   -8.17050798504367
N          -4.68969692172644   -3.18619348863765   -6.83744654315124
C          -3.49974856670643   -3.39508583985417   -6.22377695758014
C          -2.90033073346562   -3.70981787124235   -5.01365316854892
C          -5.52171812675801   -2.64275269346011   -9.05198252062327
C          -5.39897933210071   -2.40148269849094  -10.39130815022301
C          -6.52719577852110   -2.14651763086629  -11.19675399184256
N          -7.73442772819003   -1.93224542075918  -10.66395110011158
C          -8.54167633034029   -1.61666393155298  -11.68276371753642
C          -7.81514630205395   -1.62048012453000  -12.96310274933679
C          -8.71885220024054   -1.28814328989910  -14.08137069301709
O          -8.46244499474768   -1.23030121177346  -15.26306311653472
C         -10.00079429384627   -1.06331734703213  -13.39193524884723
C          -9.85367940311374   -1.27581813466257  -11.93845990389839
N         -11.03283007941404   -1.08807670651361  -11.30457669939272
C         -11.88753632547549   -0.78038830711622  -12.25636029576832
C         -11.31249059869712   -0.75278137874958  -13.57950193305965
C          -6.52948844802546   -1.99121070987669  -12.67415354064996
C          -5.46821458385217   -2.20713035292592  -13.60417625543171
C          -4.46187387358890   -3.09031432935915  -13.41976729289674
C          -3.39707020472868   -3.38661740242921  -14.33086539196423
C          -3.10145820405382   -2.70953587839378  -15.53388497107608
C          -2.03988143859028   -3.15450205594818  -16.40288121185291
N          -1.80005419860882   -2.49695914683883  -17.57019756853877
C          -2.52336867663639   -1.47401901842182  -17.86301062376122
C          -3.54752468428345   -1.00747378264993  -16.98455568146944
N          -3.81154496865492   -1.60892329588473  -15.87510721025192
F          -4.24410021281070    0.08534268165634  -17.28154849839028
F          -2.28134106974879   -0.84061456411835  -19.00713943446169
C          -1.23685442912346   -4.24415847310156  -16.09486010431139
C          -1.47861253155904   -4.89864975312514  -14.89315637069831
C          -2.54641385144774   -4.47060901194499  -14.01709010594163
N          -2.60953605098688   -5.22333471553851  -12.91357422792098
S          -1.46165279518263   -6.34002527177547  -12.98110741226415
N          -0.81543029605564   -5.94893199068848  -14.38992051102304
H          -3.63182284540713   -7.84019656066369    1.36405712948869
H           7.03387285370781   -3.92507936792651   -1.16725276160348
H           6.02255436377809   -2.99177332991171   -3.49035956338182
H          -1.50792558980131   -4.43219846269363   -2.61748430795592
H           0.55453819127714   -3.95326436201016   -4.83349529334105
H          -0.36502087720314   -3.38793162272247   -6.99573769404997
H          -2.59766998267977   -2.74642865016812   -9.35784770402448
H          -5.60380294059992   -3.22884686876170   -6.41981368708478
H          -3.37272624887489   -3.89815906564223   -4.07108668178962
H          -6.52501262381959   -2.64688838041916   -8.64620919709891
H          -4.42746918826530   -2.39151298700275  -10.85903848074625
H         -12.91658479097864   -0.57819144385762  -12.01414305673009
H         -11.83896777866677   -0.52904888559787  -14.48614571705684
H          -5.54476130684416   -1.66555057743142  -14.53617070292765
H          -4.45250884782459   -3.71879112429442  -12.53839200873810
H          -0.45969418401017   -4.55856993700171  -16.76932655490867
