82
 SCF done       -144.454313840298          0.000981425886
C          -6.44075637950790   -4.27924550143815    3.21642529214686
N          -6.74696824835681   -3.90222386379020    1.97958715103345
C          -6.17357530378603   -4.56382818889980    1.00461480374445
C          -5.21262117325546   -5.56147199944360    1.28869128662808
N          -4.99806359637499   -5.88163961642153    2.56779117513409
N          -5.62876729730058   -5.27501000625208    3.51300664119827
C          -4.47340594440083   -6.27610194344140    0.28784318801721
C          -3.67485058352980   -7.46305867866057    0.56866918438377
N          -3.07555778122348   -7.95966563375889   -0.47977010661608
C          -3.42462409023293   -7.15489859584295   -1.51457439396310
C          -4.32469424550083   -6.07913523763860   -1.06989245556225
C          -4.60937401647894   -5.19728281213716   -2.18420834344231
S          -5.39359449289179   -3.74890154427404   -2.14837220996396
C          -3.93070400773005   -5.78905969675210   -3.30032373999481
C          -3.18108756702816   -6.97244556570618   -2.85849175440954
N          -2.45189969582605   -7.49067913732052   -3.88102809658701
C          -2.66418544992220   -6.69579325732267   -4.89726823386288
C          -3.58262866149669   -5.59748428800897   -4.62372927399509
C          -4.02534517529980   -4.60724309621179   -5.56378321391387
C          -5.30664156023451   -4.09705101350398   -5.46717664558022
C          -5.73433380946093   -3.11046699281704   -6.37138803235024
C          -6.94275136547183   -2.42632512269435   -6.48944253375137
C          -8.24679499069921   -2.55158760955175   -5.77535606461037
C          -9.26235771070296   -3.31647394690289   -6.66676895989456
N          -8.82986537436345   -4.67582632585554   -6.93028669690294
C          -8.21893013384718   -3.11603448268047   -4.34600800339042
N          -7.94233375407308   -4.54042888323554   -4.26889881273457
C          -6.77298102842734   -1.47811833199499   -7.57390286120161
C          -7.60307596249267   -0.54284633207893   -8.07233665267776
C          -7.21169947784206    0.32437800644542   -9.21572916576615
C          -5.81644575114653    0.10289005958395   -9.71700143177886
C          -4.99715653401824   -0.83383079820019   -9.20385695205944
C          -5.42407322607025   -1.64267067378249   -8.12466537541847
C          -4.80185003977918   -2.63087856403754   -7.38531104154265
C          -3.50992593178970   -3.19527382640358   -7.47466043851031
C          -3.14004924953883   -4.16301144657954   -6.59588872353762
C          -8.14040645751164    0.13438851434763  -10.39376487861729
C          -8.79438811476163   -1.00866011458265  -10.62093760166819
C          -9.67060961751595   -1.26274845248547  -11.72194245264622
C          -9.99875544604083   -0.41351627154160  -12.86067352461470
N         -10.85670966634489   -0.94156817358415  -13.69789246087099
C         -11.16235078666877   -2.16230081706720  -13.18716739811201
C         -10.43077718108763   -2.39208298752485  -11.93431855565239
C         -10.75269656549948   -3.68504741879668  -11.39499586728693
S         -10.10471198362033   -4.39707432077136  -10.06436575003931
C         -11.71076046839636   -4.22636743730155  -12.32509859645652
C         -11.93269248782872   -3.28131216465666  -13.43093180227632
N         -12.79851219384070   -3.79759102573119  -14.33916276725600
C         -13.11780660139732   -4.98407118923695  -13.88879609690499
C         -12.48075658922913   -5.32903302467113  -12.62889853048745
C         -12.66119040136179   -6.54894969310690  -11.90102868348062
N         -13.27641278346830   -7.57600103483165  -12.50744937404215
C         -13.36616908382212   -8.69684851329149  -11.83471038101620
C         -12.72811557666629   -8.81392252634704  -10.59242133091386
N         -12.24492108770384   -7.73010627517713  -10.01747644173022
N         -12.26172291092758   -6.59690317472910  -10.62326431609266
H          -6.89462013970012   -3.74333156410275    4.03742457491663
H          -6.45450603297375   -4.30988398935252   -0.00893283677349
H          -3.57113042105579   -7.90887278140561    1.54094346171369
H          -2.21314520570589   -6.90772040525593   -5.85140949413234
H          -6.00945629969882   -4.47953819081635   -4.73987547993788
H          -8.64774559187899   -1.53381370584131   -5.67892066265074
H          -9.41966678084652   -2.73418776471900   -7.58855552907627
H         -10.21845517803984   -3.36792313759701   -6.13699491251396
H          -7.97357461058925   -4.67204241810021   -7.47530744512673
H          -9.53504279072627   -5.17029923857367   -7.46578520115824
H          -9.19420132826922   -2.86420575995331   -3.89660345270389
H          -7.44877542545147   -2.58827663910293   -3.76973429852879
H          -8.38889013914354   -5.01826535742259   -5.05012108531818
H          -8.28429479188671   -4.91992898745919   -3.39451065649494
H          -8.59593106504823   -0.38202251466026   -7.67432071368668
H          -7.30753893777909    1.37216466383424   -8.89145261137589
H          -5.50634357920975    0.72581692149702  -10.54196000137886
H          -4.00113687561559   -0.96890282714418   -9.59954637469671
H          -2.82782866788464   -2.84668448915018   -8.23607517572798
H          -2.15053480681838   -4.59264595818641   -6.64306253719085
H          -8.21259165961157    0.96603558037889  -11.07904496589419
H          -8.69045753723727   -1.83359703889694   -9.92690266325819
H          -9.60462313576914    0.56969865639121  -13.04764639155927
H         -13.79770247168385   -5.62015497933491  -14.42607198492997
H         -13.93405135061713   -9.49984559635282  -12.28493477557152
H         -12.63891956299411   -9.74042142988416  -10.04843048514483
