91
 SCF done       -191.240051160883          0.000505949634
C          -2.19033540764388  -10.47105752074005   -2.03982308039357
C          -3.46121556680503  -10.95052305818954   -1.84885768577910
C          -3.75776878478431  -12.29177813265088   -1.53370218568141
N          -4.05359216336247  -13.36486898350977   -1.25439895251015
C          -4.61982843070315  -10.17148219421165   -2.04737763735987
N          -5.58250724094834   -9.57959308880665   -2.25202545966114
C          -0.98944466145529  -11.29251892219916   -2.17043428438975
C          -0.00353521361809  -10.55008188180340   -2.84696908792223
C           1.22571448945799  -11.09445975141496   -3.15722408689569
C           1.48199097273129  -12.40598422202096   -2.77474019242942
C           0.51019189772462  -13.14588846782990   -2.09080561751693
C          -0.73172641274699  -12.59742471879236   -1.78793420708320
Cl          0.84614534783341  -14.76014828184573   -1.61477718341193
Cl          2.99891013384756  -13.11908263054776   -3.14494802483967
C          -0.51364065666870   -9.18965121053179   -3.12552747282685
O           0.02958061303615   -8.29941473244421   -3.73469452917624
C          -1.83587019592773   -9.12859925948093   -2.44320683059745
C          -2.44427509814184   -7.92184590371455   -2.26649071521729
C          -3.47220883280358   -7.55474345174306   -1.35586309412507
C          -4.29738112652618   -6.47977509779174   -1.61478715764310
C          -5.37045879241856   -6.09468926594500   -0.82169233468021
C          -5.72613865372290   -6.85375271377278    0.38399419002336
C          -4.99555829066351   -7.87704450305675    0.88072567998564
S          -3.57749867690988   -8.47825397292099    0.13740009510087
C          -6.94105023829745   -6.28353553452309    0.85231020211140
C          -7.32879005604425   -5.24559521341446    0.00079698289556
C          -8.53791848082234   -4.64164469289523    0.41118686956863
C          -9.02684491902686   -5.22655586863169    1.53518596702233
S          -8.04688434184852   -6.52187593830006    2.14124852120606
C          -6.34470497950721   -5.08963160682591   -1.03373191852780
C          -6.43269110626326   -4.09695214378136   -2.03444411832366
C          -5.42708817088790   -3.60777823969676   -2.80806144266851
C          -5.66154514796774   -2.63339423920699   -3.81866149599424
N          -6.89893839730026   -2.24114856976764   -4.10062946689560
N          -7.17563171916027   -1.35164403848656   -5.00361276304584
C          -6.26767411259755   -0.76087579132031   -5.76610862992971
C          -4.89559065077127   -1.12513756315865   -5.61168999271633
C          -4.58536128217082   -2.07950646056452   -4.58238428289213
N          -3.28581022912154   -2.27921055080294   -4.60753284756031
O          -2.81460195584196   -1.51199933674606   -5.59295522738819
N          -3.76598841480717   -0.81242822787508   -6.21135427174088
C          -6.72404047304789    0.24862926067200   -6.66882115113809
C          -5.84709260519489    1.07602087372146   -7.33047671637210
C          -6.24135030436719    2.14309531327659   -8.12625532174901
C          -7.64577665240069    2.32382217108267   -8.49417847286576
C          -8.66235497133813    1.60742495643554   -7.95137606551137
S          -8.46019954158690    0.38519040621858   -6.76741678359589
C          -7.64943828092419    3.36780871849525   -9.46113524292010
C          -6.34634778891241    3.83503708564019   -9.66055563275985
C          -6.29545039991644    4.88940673454746  -10.59832769279106
C          -7.53031042453086    5.18504276578261  -11.08127219121214
S          -8.79986630325408    4.21151950524494  -10.41668814708952
C          -5.45225809715079    3.11354750235399   -8.79696556621676
C          -4.08138505514897    3.37468176535690   -8.61860032676369
C          -3.36776543029858    2.96707195218152   -7.52170100293099
C          -1.98142649676821    3.10798322877404   -7.38714599259298
C          -1.26863819407902    2.57553329335540   -6.33582312204507
C           0.16231742310441    2.64386854737145   -6.14172664392124
C           1.05824606225423    3.41095742894534   -6.84358692386495
C           2.44378425423874    3.44612259935319   -6.58323582811971
N           3.57825235046675    3.52275899120511   -6.42454520572958
C           0.73196274698043    4.28984151317318   -7.89693481781421
N           0.55017567531053    5.03212009596167   -8.75451865110754
C           0.49942373634604    1.77013565843885   -5.01793413269309
C          -0.68742829874265    1.23152752115728   -4.49338841946764
C          -1.84444064983617    1.74046917585154   -5.26087674620304
O          -3.01325842891074    1.49717555929253   -5.02475401706295
C          -0.68179095106561    0.35506744031413   -3.42869017023883
C           0.54122147881959    0.00538256363873   -2.87021070231043
C           1.72732132944416    0.54014469681522   -3.38148561179983
C           1.71650795837303    1.42399184382642   -4.45593418509998
Cl          3.23315492590393    0.10285348230435   -2.67953870683954
Cl          0.59019189253831   -1.08843254239587   -1.54780197374136
H           1.96676334071320  -10.51600519977179   -3.68587149255681
H          -1.45795547744997  -13.19264756569024   -1.25849928785767
H          -2.04004098293409   -7.11627082372893   -2.87268924659729
H          -4.13502263448335   -5.97024148821737   -2.55359631038135
H          -5.26029782863365   -8.39186482411223    1.79083961756440
H          -9.02087541170012   -3.82563423313656   -0.09419702721711
H          -9.92428067608743   -4.97844871715231    2.06738319113468
H          -7.40823151432778   -3.64928839747626   -2.17790914497183
H          -4.39659410250311   -3.89788818613402   -2.67090166928061
H          -4.79799202838900    0.85245112127878   -7.20613881606365
H          -9.69168200074994    1.78709674442551   -8.21996519781623
H          -5.40017078468163    5.39911345023016  -10.90405237901932
H          -7.79038257032851    5.93275168020408  -11.80476011518417
H          -3.58470395054953    3.96112234053446   -9.38263534825622
H          -3.88802919607279    2.51521534724465   -6.69449217515693
H          -1.44661911046033    3.61434500589076   -8.18021878716330
H          -1.60187496398348   -0.05225988477131   -3.04078337659693
H           2.65170435181353    1.81137951239384   -4.82542251227998
