108
 SCF done       -216.805126005180          0.000699645566
C          -6.00937006810956   -7.43749959632476   -5.48790057440702
C          -6.66613922785377   -7.18250991920945   -4.31126475236100
C          -8.06498783885883   -7.04566152302922   -4.20374117021179
N          -9.19913827140468   -6.94785479230822   -4.05641615220704
C          -6.00992794700521   -6.93698833259251   -3.08843869400599
N          -5.52148312368734   -6.68739358216523   -2.08035812455488
C          -6.62500271327232   -7.40805566046943   -6.81437851430203
C          -5.61625002720302   -7.22768634053167   -7.77801891661235
C          -5.91028304865479   -7.11993893611504   -9.12166117987265
C          -7.24074395280777   -7.20537567215554   -9.51469502029431
C          -8.24793085229306   -7.39810641801007   -8.56273235732741
C          -7.94908024063179   -7.49639585355733   -7.20781266258883
Cl         -9.88569888025235   -7.51677151844816   -9.06477513362935
Cl         -7.64680962364805   -7.07529596599268  -11.17802348380696
C          -4.29587875885129   -7.19704794529589   -7.10929888001057
O          -3.21263632553532   -7.01244126161699   -7.61323097197127
C          -4.57900851090804   -7.49835972878578   -5.68186114408883
C          -3.54252867479935   -7.82750900550725   -4.85492500307368
C          -3.56864563000600   -8.52081692425900   -3.62896708752913
S          -2.18198380457342   -8.45825702735574   -2.57037784136494
C          -2.93326932935501   -9.53355682268899   -1.44105399895931
C          -4.17629917458839   -9.94435277080848   -1.89829620703519
C          -4.53417238344071   -9.37167191300529   -3.10730692668229
C          -2.30920962753876   -9.88468747082315   -0.21895494566167
C          -1.10315200822845   -9.43963315503054    0.28681426203593
C          -0.80064225340609   -9.96406318651767    1.53963752757248
C          -1.76648897590827  -10.82945564601098    2.02041349772368
S          -3.07453729202303  -10.98863244848196    0.88827953414475
C          -1.78331437972820  -11.52481548066390    3.25959066853665
S          -3.01145743514290  -12.69596557339540    3.62036804342160
C          -2.34567784438680  -12.98511061559596    5.20199543494802
C          -1.22263264257876  -12.20096388449132    5.40580463493975
C          -0.90486799416924  -11.39082203861889    4.32173753395226
C          -2.98361030372655  -13.92602186322574    6.04998213314886
C          -2.65427120967997  -14.15097628369769    7.34604265205836
C          -3.30319066194891  -15.08315844756460    8.19558037600136
S          -2.81490191705982  -15.12950585601382    9.87557611975392
C          -3.95089176185400  -16.39354362329042   10.29349442936406
C          -4.65937462003029  -16.75766344368537    9.15754745006116
C          -4.30347140018522  -16.02164075193445    7.99013128451318
C          -5.10378548293871  -16.46082955490615    6.85012937708344
O          -5.08766570383141  -16.06120454118928    5.70796421140145
C          -6.01467223150338  -17.55932887890376    7.36817868687270
C          -5.70419240283630  -17.72868914477495    8.84450698217814
O          -6.24217239056305  -18.53227728692490    9.57253524457370
C          -3.99866865217577  -16.81588668999936   11.64645510001689
C          -4.80705052962711  -17.79668701646984   12.11991641746092
C          -4.89682122591238  -18.19592402789900   13.47711119935384
S          -5.95686161987846  -19.51594918198218   13.88653913018844
C          -5.57330908232870  -19.36495400155060   15.57341478120857
C          -4.66770088875812  -18.34054384754511   15.78312889065279
C          -4.28748742075161  -17.69155683127173   14.61376758213142
C          -6.17478600686437  -20.21722006404280   16.53449640640675
C          -7.02447275080111  -21.28133427348074   16.30187911962565
C          -7.46095332965450  -21.90714933019324   17.46442353874736
C          -6.95987182534410  -21.33394934416883   18.61916436994239
S          -5.91327861471551  -19.99478460269557   18.23884430689998
C          -7.23092391028802  -21.71043501984642   19.95916370257317
S          -6.56822607817694  -20.84735406305177   21.30750701919307
C          -7.39132021097037  -21.88531244929061   22.44495026336475
C          -8.12918941153533  -22.84971048052867   21.77017734143264
C          -8.04034966926500  -22.75322773392724   20.39118922704210
C          -7.26007510554387  -21.66589387532427   23.83116670458805
C          -7.88972446942410  -22.40228904970609   24.79316452184827
C          -7.73651824640127  -22.12308219372849   26.16232326284013
C          -8.35434010277672  -22.81581055394532   27.17350103198225
C          -8.23947636379210  -22.56414265655693   28.59480870847986
C          -7.51170421323095  -21.57738320113384   29.20979340417000
C          -7.45226006986015  -21.39093232460191   30.60708005051916
N          -7.35850488771375  -21.18268490667749   31.73219564297127
C          -6.72506623261601  -20.60569201904322   28.55683493380311
N          -6.06478307868798  -19.78005208491820   28.10774063795289
C          -9.05961899905717  -23.55848269371706   29.28668696238120
C          -9.66930072418044  -24.38941895645248   28.33163168239065
C          -9.26252918239495  -23.96709982258429   26.97328741834672
O          -9.61552124071348  -24.47777221152521   25.93020400496846
C         -10.50796904142613  -25.42335536639236   28.69287160068854
C         -10.74542815430123  -25.63731686717140   30.04480254998516
C         -10.14159025699192  -24.81715032138672   31.00366405370948
C          -9.29775445767436  -23.77514195129526   30.63405611108931
Cl        -10.44062204547310  -25.09300504686114   32.67235325458969
Cl        -11.78344461956281  -26.91408253564029   30.53686783416246
H          -5.12599542265492   -6.97186051418348   -9.84699174158027
H          -8.74866815302603   -7.64732829393017   -6.50083825569108
H          -2.55879251305824   -7.58150114756154   -5.24338193067169
H          -4.79394009608355  -10.63021692145570   -1.34614006587222
H          -5.44954435990168   -9.59920951852879   -3.62420265350996
H          -0.47475226819548   -8.74943673412991   -0.24778313233770
H           0.09618859430403   -9.72892803403746    2.08259778016854
H          -0.64800645852367  -12.22490280681803    6.31389069729137
H          -0.06874271954417  -10.71560107041896    4.30660944281315
H          -3.79776824087462  -14.48445442239139    5.60935996730366
H          -1.85802761883283  -13.58375765577051    7.80959348895651
H          -5.84963713402854  -18.49260486120351    6.82517711270055
H          -7.06429685730569  -17.29581623314616    7.21927572717500
H          -3.33247106800306  -16.28940896597359   12.31696263022048
H          -5.45062328567866  -18.32469754093963   11.42990554373028
H          -4.30491480930696  -18.08583420970626   16.76366088870617
H          -3.59461009992853  -16.87010964487937   14.59163663523588
H          -7.30996813812621  -21.58198206598144   15.30957304235565
H          -8.12671928121084  -22.75027772993749   17.47080397361623
H          -8.71267324206352  -23.59603469348115   22.27746844953640
H          -8.54670124591469  -23.41550368398293   19.71325723354465
H          -6.61961766564278  -20.84620303397589   24.13390018360505
H          -8.53385819023774  -23.22121227177530   24.51519519448687
H          -7.08473622747073  -21.29825000193141   26.41979132585705
H         -10.96588154153607  -26.04781934907999   27.94211053263387
H          -8.85203029112317  -23.16551431249224   31.40260482072101
