95
 SCF done       -201.382564095425          0.000540074411
C           5.47098410535751   -1.85410136905358   -1.11822025206061
C           5.19592465396961   -2.74521714904751   -0.12184164852617
C           6.18134953092578   -3.30358246956770    0.72355040725884
N           6.93766254252658   -3.78540040848734    1.43807414999991
C           3.93259874040332   -3.33949031713524    0.10092526436412
N           2.98660896155565   -3.97012716283393    0.25939428171301
C           6.81055832377893   -1.52199617560867   -1.59702213704439
C           6.71617408533538   -1.03564757252200   -2.91607539110785
C           7.84412376404394   -0.76004377842669   -3.66731314205377
C           9.09105925014688   -0.93876808558702   -3.08233820932337
C           9.18848181489074   -1.36451790117260   -1.74739314913705
C           8.05293892762393   -1.66692847529492   -1.00315435215002
Cl         10.72553593962144   -1.52331754964912   -1.02343215987864
Cl         10.51085912258243   -0.62127073878584   -3.98604386461101
C           5.30106250266210   -0.87448034232844   -3.28564886074358
O           4.84747056953338   -0.42491803704143   -4.31245966177590
C           4.52906848967832   -1.29059914464488   -2.07286824209334
C           3.20314700935752   -1.01602716072882   -1.99246060443073
C           2.38452666607105   -1.06161572364109   -0.82764555217902
N           2.88889162798060   -1.12084306684605    0.39476420515012
C           1.83350682332046   -1.10597331698648    1.23650609895173
C           0.56510721162900   -1.05553268168660    0.49624291014242
C          -0.57586157457455   -1.04063033308252    1.42300138734538
O          -1.75854163841418   -1.00423133436831    1.16048435174787
C           0.08347824684877   -1.07505993642652    2.74438456184971
C           1.55777191735918   -1.10957396497549    2.57865872531579
N           2.17438959898361   -1.12118990257237    3.78590905787747
C           1.20654913536839   -1.10280688147935    4.66552906137808
C          -0.12690676907252   -1.06858505020754    4.08258814326923
C           0.90305494672416   -1.00138303229768   -0.83079247058136
C           0.11423587447101   -0.87814390897551   -2.00281638755132
C          -1.23681813949766   -0.83261711404807   -2.04284268681577
C          -1.87038639282404   -0.61033766134822   -3.30227833699723
N          -3.21571984669872   -0.69618960099815   -3.57528465575590
C          -3.46399977147258   -0.41347918214710   -4.87792753490683
C          -2.25302680349892   -0.12238866043720   -5.48721302151127
C          -1.26254273874576   -0.25769923810491   -4.48806355849645
S           0.29928872398883    0.22914738656411   -5.16331103747420
O           0.72178541252590    1.45419744325965   -4.54053598524531
O           1.25194603013303   -0.85013257679175   -5.15994279781116
C          -0.42324641900381    0.49265815442677   -6.81712101189834
C          -1.75912733096441    0.26793867711773   -6.77436803970455
C           0.42234258927522    0.84309003460073   -7.88993177347936
C           1.75228030117937    1.04491667012391   -7.69263810936769
C           2.65530921424247    1.39249433724593   -8.72655730090703
N           2.29493244880415    1.54026766502396   -9.99553110695100
C           3.39863298171438    1.94152893787556  -10.65022540294624
C           4.54548848025115    2.08718985542139   -9.73331704894333
C           5.74186918089343    2.53869929462358  -10.46686633176949
O           6.84315974082634    2.78646039242897  -10.02724955536583
C           5.25323149045050    2.62378033669179  -11.85389578787374
C           3.81959609194525    2.26086748339778  -11.91923381221982
N           3.36662657534024    2.33552659556427  -13.19345635613716
C           4.40380447399894    2.70589725666500  -13.90538466254642
C           5.61463477678477    2.89891459077950  -13.13338644838148
C           4.09268018085720    1.70535126553456   -8.49951948039890
C           4.72965569631298    1.65438241998280   -7.22793539248196
C           5.89342378496487    2.28355310312389   -6.94008333758285
C           6.45821067565457    2.32919344809345   -5.63242802088940
C           5.76015166745748    2.34503144823978   -4.46138903488716
C           6.31383152877567    2.20588693237540   -3.12502955041482
C           7.63698699170103    2.16715419001051   -2.77266053333731
C           8.09833743463201    1.90480471416460   -1.46617943082869
N           8.54387912188328    1.65421560398074   -0.43833340448552
C           8.72771266047170    2.38325742913675   -3.64228601554804
N           9.67010882572482    2.56960349976550   -4.27051068557070
C           5.19483141965556    2.10555714561838   -2.19030739626025
C           3.99717212114996    2.32626782827054   -2.89015594447932
C           4.28733820880147    2.55960516469472   -4.32043576592234
O           3.50612527720537    2.95140585166331   -5.15245458213579
C           2.76654159473249    2.31869893952880   -2.26618405839608
C           2.73593746506538    2.09207233592827   -0.89603116445300
C           3.92033481828444    1.86504547794142   -0.18311393182490
C           5.15394736295353    1.86310244940532   -0.82545960626934
Cl          3.85934177836470    1.57358056013071    1.50712469829683
Cl          1.23153074673270    2.10671671956239   -0.06590450748515
H           7.75585468414020   -0.42194582238116   -4.68842422992985
H           8.16429140974925   -1.99488281056889    0.01728793394627
H           2.74142212709185   -0.66993042514383   -2.91153516317262
H           1.42857831330386   -1.11319641817995    5.71854042112624
H          -1.04523487740850   -1.04515899586598    4.63511914046029
H           0.65443052951728   -0.80234099100285   -2.93397478513951
H          -1.83648304661109   -0.94122362401245   -1.14968374808030
H          -3.91480758734744   -0.94502447989537   -2.89174472600333
H          -4.45792221579105   -0.43051442479999   -5.27884010589176
H          -2.40877994820782    0.37049707416048   -7.62991125481716
H           0.00921677991575    0.94429766072262   -8.88597994278271
H           2.15000351481774    0.96482336329553   -6.69216776018059
H           4.31079866775977    2.84308714592059  -14.96872177237264
H           6.56549372623010    3.19712593741448  -13.52839112613396
H           4.23799474699207    1.07880007020664   -6.45731858864013
H           6.46500669631509    2.74683021091514   -7.73586095092725
H           7.53987149097715    2.37571026538311   -5.59223735493009
H           1.86581200682196    2.46544307524594   -2.84458620410670
H           6.04362215055878    1.68556855525583   -0.24399679469565
