101
 SCF done       -202.517828425598          0.000623277443
C         -14.00072090407684   -1.37231872518399   -3.33177363465018
C         -13.44934866857042   -0.28598720057274   -2.69999470612975
C         -14.20516293708610    0.77800087449020   -2.17151066113181
N         -14.77633610109084    1.67053626949640   -1.73000611817450
C         -12.05933984930480   -0.05748606790277   -2.64957095682792
N         -10.93657990371275    0.18579744724904   -2.65545917345102
C         -15.40701579716737   -1.52646018558644   -3.69321328550081
C         -15.50926743060123   -2.48632956406660   -4.71778215482327
C         -16.72740598885822   -2.84366271250761   -5.25575752315258
C         -17.87535726489980   -2.23799655239590   -4.75494957307722
C         -17.77762253248247   -1.28051086964177   -3.73861254443102
C         -16.54654966851430   -0.91200653713155   -3.20580495711404
Cl        -19.19946900626709   -0.55476425846921   -3.11727426215017
Cl        -19.40810016062599   -2.67509050098570   -5.39012370628084
C         -14.16241021352609   -3.00151496236453   -5.04346549068271
O         -13.84403331871174   -3.75787665802162   -5.92961298999248
C         -13.27122922219687   -2.42142848648265   -4.00087991603693
C         -12.04180520891851   -2.97676018726288   -3.80061712306405
C         -11.16986408279679   -2.91877908073774   -2.68399982752933
C          -9.83326466869581   -3.22214857264123   -2.84402521854731
C          -8.86754882175189   -3.11800770105866   -1.85443599142762
C          -9.22038057212148   -2.77328987299039   -0.47613892946714
C         -10.48569576668362   -2.52731872428370   -0.06575332773734
S         -11.84738432600623   -2.53792089517681   -1.10433925468164
C          -7.98542591777774   -2.74235770699804    0.22752649265793
C          -6.92447298928504   -3.00283473214557   -0.65163247689816
C          -5.67574775335878   -2.97105432926294    0.00951498163643
C          -5.81586263067820   -2.69398906776040    1.33158603162188
S          -7.45672386860318   -2.45757639000971    1.83327428400804
C          -7.46019269328375   -3.23716868919637   -1.95995048345514
C          -6.81364327527960   -3.43119558301298   -3.19946001568132
C          -5.50440266621072   -3.31213829705267   -3.53243198474109
C          -5.11533872298383   -3.39463151676366   -4.90995522823524
C          -5.91650056873626   -3.00138326820245   -5.96048946640961
C          -5.67961112992539   -3.34749465709320   -7.37952240124987
C          -4.49908545583078   -3.99938501713555   -7.79371159996197
C          -3.50842143021887   -4.31470881019272   -6.93268023405032
S          -3.55207608186574   -4.09337811496154   -5.22038207266409
N          -6.66325674587438   -2.96676630727710   -8.16751628040806
C          -7.55805596941720   -2.31204292884825   -7.37178415851956
C          -7.12996570836349   -2.28483230278370   -6.02340070569210
S          -8.17465328171906   -1.33891726091377   -5.03685899955377
C          -9.26072924107881   -1.09918551755830   -6.40157535307341
C          -8.78859780719429   -1.67059485101598   -7.56589599016281
C         -10.46442681645830   -0.39672958437499   -6.12508096043824
C         -11.61543103209173   -0.49243573852055   -6.82938589951890
C         -12.82095393424354    0.18492810960633   -6.47201012335639
C         -14.05069651761983   -0.22755783220746   -6.93525067221486
C         -15.26602914617387    0.32587156473959   -6.54412486292172
C         -15.33577972346727    1.44950756277605   -5.61383615065119
C         -14.25060319024205    2.06047366210323   -5.08522770811779
S         -12.64178367812492    1.56547401244885   -5.40231962459122
C         -16.72215949522445    1.72116397972884   -5.45003771442841
C         -17.48044718594439    0.84596966390827   -6.23080647982310
C         -18.86369097304430    1.08833381543985   -6.08347557952109
C         -19.10674058422060    2.10819226707350   -5.21725176398723
S         -17.68238356407036    2.81581221423711   -4.54267714232613
C         -16.57989615846379   -0.04612923083674   -6.92485310435178
C         -16.85425047743185   -1.13146541165365   -7.76317276496617
C         -18.09130816268949   -1.54697205548615   -8.18999537009715
C         -18.36631783758559   -2.71669728304315   -8.90726375097956
C         -17.55143866846600   -3.65136124880040   -9.52366998233319
C         -18.07936587346859   -4.88284781202541  -10.07235152499589
C         -19.27366553706756   -5.48032105864255   -9.74967129717168
C         -19.73076057778114   -6.68365805639318  -10.32324789435728
N         -20.16405011343358   -7.65259479772354  -10.76211501136118
C         -20.17331773352523   -5.02514680299804   -8.76352400271713
N         -20.93715365683281   -4.75227327937347   -7.94909274138684
C         -17.06299098425903   -5.46344873725732  -10.94676958751271
C         -15.90014497427570   -4.68513657480758  -10.84236394364051
C         -16.13607430183336   -3.54925261253309   -9.92031818884783
O         -15.29731389823676   -2.72034883568037   -9.61956279972722
C         -14.75197693655803   -4.99275964779782  -11.54098715595779
C         -14.76910417277523   -6.10371931282906  -12.37560834027930
C         -15.92538695502680   -6.87950257887820  -12.49229047132236
C         -17.07848566232420   -6.57018467530701  -11.77763411589907
Cl        -15.93638359001909   -8.24423457519996  -13.53760922878762
Cl        -13.36091985628994   -6.51861632061804  -13.26941454425247
H         -16.78962804672967   -3.58195908824203   -6.03913964594293
H         -16.50871424641625   -0.17643231554686   -2.41843217157388
H         -11.70748133942758   -3.61580345689997   -4.61331448125327
H          -9.53228903339263   -3.49774170732751   -3.84468736493422
H         -10.72962087223346   -2.28435830875632    0.95657147527322
H          -4.72322497550268   -3.14801332787155   -0.45436827633797
H          -5.04177662899894   -2.60982615763624    2.06912289767878
H          -7.48535858093177   -3.66972928599112   -4.01111387023519
H          -4.72697763252281   -3.20102429513000   -2.79223592389082
H          -4.38573527179408   -4.21429318994720   -8.84546329339405
H          -2.58613600697187   -4.77068778407620   -7.25275337671053
H          -9.29810159095463   -1.60304368063115   -8.50866693174131
H         -10.45230828644983    0.19219699870854   -5.21525061491911
H         -11.68107721050627   -1.16282759360280   -7.67462427715537
H         -14.05557570240136   -1.06078872391467   -7.62493978384218
H         -14.32361279544964    2.90344748619283   -4.41650694353792
H         -19.65241487575111    0.54975800072971   -6.57471086331914
H         -20.06087657678262    2.49820305553591   -4.92095709723153
H         -15.99798162934137   -1.70104045813101   -8.08735928713014
H         -18.95750044665670   -0.96783695274940   -7.90571618861677
H         -19.42660872701533   -2.92851311909686   -8.99473957072303
H         -13.86667317066716   -4.38505299743451  -11.44156472918220
H         -17.95181803048925   -7.19059681445571  -11.89439219145281
