146
 SCF done       -239.259385049842          0.000862200309
C           5.96528314437708  -13.72359650039507   -3.15256036316095
C           5.87483959142499  -13.44781110067867   -1.81405261530375
C           6.55710793068413  -14.17349524679692   -0.81650053050632
N           7.07551322565192  -14.74743703399437    0.03139295625768
C           5.16289374338585  -12.35043103339743   -1.28561844206478
N           4.66144268844826  -11.43873914522869   -0.80113903896573
C           6.90414393617765  -14.66058335591253   -3.76411370323419
C           7.04701321097241  -14.33743845972539   -5.12635279392387
C           7.90368931074848  -15.03840497592543   -5.95030777532320
C           8.62672930428121  -16.09280968327413   -5.40623330165914
C           8.48101082325524  -16.42720371980629   -4.05501028051311
C           7.62458663046303  -15.71305683978294   -3.22457339406340
Cl          9.37072047090199  -17.74257550281137   -3.40137935338012
Cl          9.70185029618008  -16.99021313285154   -6.40049888910769
C           6.15416362023240  -13.20563313073307   -5.46285838339314
O           6.05259617813712  -12.62953090383617   -6.52035892965203
C           5.35886268748510  -12.96470495522298   -4.22946846498964
C           4.22997861722746  -12.21395109145140   -4.28583237067880
C           3.14237956623958  -12.15926542182038   -3.34949616250309
C           2.39988658495588  -10.97332092692151   -3.23131838880361
C           1.35838144923136  -10.91790381450561   -2.34181518665748
C           0.99332705580620  -12.05157828733701   -1.59224688805921
C           1.69500366593349  -13.24185348818277   -1.73349083662920
C           2.76867939022426  -13.28290017860807   -2.59643766110750
C          -0.15937941274484  -11.71785349295739   -0.78524382767409
C          -0.49688766365858  -10.37510608892872   -1.02561561936043
C           0.45630447691864   -9.75237351777861   -2.01694027107031
C           1.25581158187834   -8.60062517637901   -1.37705715322054
C           2.03151769615457   -9.03214937418849   -0.13831427830657
C          -0.28390228441467   -9.23999776583060   -3.26578793553253
C          -1.09982995792618  -10.32665035842741   -3.95596845044277
C          -1.58540736099514   -9.80628881873314   -0.40898332788334
C          -2.37477394293250  -10.58172533480408    0.44641535493180
C          -2.02347411932694  -11.91222306758257    0.68744714005137
C          -0.91886863443259  -12.48493204311455    0.08685513558943
C          -3.59157794505531  -10.00465986894661    1.02743720308260
C          -4.75860999516485  -10.72092598462365    1.03577032832771
C          -5.95722763854678  -10.11762628316483    1.47806543075059
C          -7.26060867144259  -10.58952937585555    1.50652059867118
C          -7.69550735161569  -11.98015566542025    1.17473974141004
C          -8.20705867152769  -12.68711365777288    2.44330988961620
N          -8.27688225920187  -14.12356809112945    2.22840872352759
C          -8.69253658723124  -12.04570356901055   -0.00615225930530
N         -10.08084283693211  -11.83296852181542    0.38428920430966
C          -8.08694759538366   -9.49322603735684    1.94946102086191
C          -9.42513517744232   -9.36138846418291    2.02216596991497
C         -10.05568081015922   -8.05659172676374    2.36957946416386
C          -9.10078966099598   -7.01800999944184    2.87138967188333
C          -7.76525133918445   -7.16055981962717    2.77348488018590
C          -7.20981646908952   -8.35542761495340    2.25860199722531
C          -5.91884263476718   -8.74077120326269    1.94946646350097
C          -4.68664625049056   -8.05018048184552    1.98354733450823
C          -3.56516876226800   -8.66391110951527    1.52461730946116
C         -11.23065492258889   -8.24478134198735    3.29055846608540
C         -12.47348712869113   -7.91312919980324    2.94492063197936
C         -13.69357073307589   -8.07134307908354    3.71780659251587
C         -13.71622855581745   -8.61600396982688    5.00810355694795
C         -14.91797186955541   -8.78837009970071    5.65663451654625
C         -16.11200901615875   -8.36498385638550    5.04714242888434
C         -16.10315571832404   -7.80318714229462    3.77876900337994
C         -14.89720520954364   -7.67310018297375    3.12373263606323
C         -17.20881713180553   -8.61591294356952    5.95029060564911
C         -16.70215887937847   -9.19070126738380    7.13016059670831
C         -15.19620458961998   -9.35454910656704    7.03643927329977
C         -14.88437030141953  -10.86342945811314    7.12937834740492
C         -13.41999289338770  -11.25536412421942    6.97931578136474
C         -14.43782325462893   -8.49313907529389    8.06788453956103
C         -14.59152935258450   -8.89819474316416    9.52796329404635
C         -17.55993587585525   -9.57805240679844    8.13151980932990
C         -18.94078711793506   -9.36279918488858    7.98187749311628
C         -19.42737982546478   -8.80461754384226    6.78616397774141
C         -18.57395263812406   -8.41907630137566    5.77881155980334
C         -19.90875491031029   -9.75321352068092    8.96642385886495
C         -19.79180590164074   -9.81118417990383   10.32222380847830
C         -20.82695156732508  -10.30108692507869   11.22152057105155
C         -21.93366669503557  -11.03281166762623   10.87744329336140
C         -22.90063516389183  -11.48363328459910   11.80103754237775
N         -23.72583158003486  -11.87439506753520   12.49676818781631
C         -22.26254195210751  -11.46317952466326    9.57431098879248
N         -22.59785140659309  -11.86995233188802    8.55394070026671
C         -20.44548715656533   -9.93492269814181   12.58009099024181
C         -19.20016599001207   -9.28520178307771   12.54160558086706
C         -18.72457143334168   -9.18917638736110   11.14515038367155
O         -17.70673085621513   -8.64300965993930   10.78002262011594
C         -18.58213052034677   -8.82359806853005   13.68586595443626
C         -19.22164829342990   -9.01725703706082   14.90321371533030
C         -20.46393017863808   -9.66069143812881   14.95204998005868
C         -21.08323890801147  -10.12265029312371   13.79682136621915
Cl        -21.24738845318068   -9.88657411675883   16.46364402591898
Cl        -18.48441622321650   -8.46304755369345   16.35195245351650
H           8.00779983053581  -14.77244255951461   -6.99031185141141
H           7.53249141980306  -15.99780068533512   -2.18895882343476
H           4.11359802949404  -11.62713941315941   -5.19216854432664
H           2.68539845653604  -10.11093427227393   -3.81541722279375
H           1.40693941034188  -14.12164498484747   -1.17810881705949
H           3.30752435965840  -14.20952595591504   -2.73558618839015
H           0.55831741104650   -7.80231193674588   -1.11262908878010
H           1.95134419474461   -8.20443223635839   -2.11980550104910
H           1.35748237635631   -9.42687016209330    0.61902237594900
H           2.55964033097697   -8.17994365463461    0.28304658916753
H           2.76142837206290   -9.79925607349570   -0.38378806685794
H           0.44893987910397   -8.83548476945874   -3.96689186092012
H          -0.94638219088361   -8.42427936024304   -2.96922953822122
H          -0.45765367501829  -11.14273107152351   -4.28005235814981
H          -1.60491910498303   -9.91873223103163   -4.82852027497127
H          -1.85120829110534  -10.72957937843698   -3.28043245338232
H          -1.86116540549645   -8.78096963110629   -0.60822043969746
H          -2.62476229985543  -12.49592360901575    1.36906759848809
H          -0.65838081534719  -13.51348427181779    0.28758138504444
H          -4.77759299205970  -11.72872325249847    0.64679297887938
H          -6.80830481862751  -12.53387639520298    0.85374699120744
H          -9.15901377032738  -12.23283792736414    2.75726871574804
H          -7.47816079894476  -12.51418737380788    3.24032222311491
H          -9.00752490429253  -14.35661647791646    1.56499602482697
H          -8.48278550445730  -14.60388306759232    3.09680704129205
H          -8.55146351304180  -13.01204330252411   -0.51564974029183
H          -8.42485061019949  -11.25706461674074   -0.71444390391535
H         -10.44677091421133  -12.65253148451914    0.85755164631977
H         -10.65030067546037  -11.68074661259749   -0.44061549766919
H         -10.08349491537041  -10.17146839556808    1.73946845234419
H         -10.45910753284231   -7.67392564571170    1.41481987698377
H          -9.54518706016515   -6.11807006760761    3.26887737913862
H          -7.10243561668908   -6.36904043401663    3.09351697851052
H          -4.65201938701643   -7.03749167237217    2.35863420295197
H          -2.61582241265075   -8.14865645629214    1.54376506288225
H         -10.99312772732805   -8.67033504549171    4.25397209247761
H         -12.62952370388997   -7.48429404987073    1.96089730878711
H         -12.78758489830275   -8.89035779489985    5.48161491483879
H         -17.02052484796940   -7.47416405779438    3.31432428463475
H         -14.87433220106115   -7.24670200893329    2.13081424912156
H         -15.46513292544460  -11.36838841381408    6.35213029396517
H         -15.25153934941024  -11.22214628487198    8.09193599097337
H         -13.05969092471910  -11.04242214018963    5.97679502335758
H         -13.31532227876445  -12.32471532996662    7.15246115334250
H         -12.79439338206737  -10.73528594419991    7.69953058090260
H         -14.78555825261366   -7.46332715609820    7.95081769218613
H         -13.37866167663591   -8.50785789842305    7.80252501476329
H         -15.61456494869226   -8.77098266050978    9.86626818660429
H         -13.95738346418783   -8.26034476580520   10.14065032730849
H         -14.28549692812734   -9.92843763748042    9.69075361546512
H         -17.19902907006572  -10.08513859655272    9.00938474589834
H         -20.49275612017887   -8.66600414137375    6.67160867808726
H         -18.95792910648689   -7.98969418651392    4.86589809227790
H         -20.88109951302818   -9.99522485875855    8.55237511165772
H         -17.62628697241991   -8.32682192580353   13.63185157017766
H         -22.04179921076420  -10.60876465585785   13.87349764902158
