133
 SCF done       -229.899068295803          0.000860220166
C           3.55196771461187   -4.15448936371850   -2.15562172780280
C           2.72367263624025   -4.01440971869584   -1.07491124793892
C           3.17427936197552   -3.88285977474368    0.25415249305277
N           3.48958798671523   -3.81707901496021    1.35574341580341
C           1.32040540297345   -3.91456887303123   -1.17829768484082
N           0.18380802143081   -3.75836046388621   -1.19957135788944
C           4.99652115915301   -3.94143472464341   -2.14965986941749
C           5.42251664181536   -3.68741585299689   -3.46668228747018
C           6.73988260109340   -3.39570351827777   -3.75642479834094
C           7.65512947056758   -3.36749058137192   -2.71126122930167
C           7.24041093163970   -3.63249969227682   -1.40060334141036
C           5.91083273983550   -3.91608321368373   -1.10973306289783
Cl          8.38640977396517   -3.60717335224718   -0.12208710434438
Cl          9.30261443278340   -3.00553726686248   -3.03191645338076
C           4.27106018151076   -3.79871918336635   -4.39098450546904
O           4.25475159024444   -3.60150574165110   -5.58256412180444
C           3.14107269734628   -4.26655695449959   -3.54292272538980
C           2.02536176699127   -4.77902670804296   -4.12053240967259
C           1.00171384505774   -5.59450839633886   -3.52695631591021
C           1.28809349043444   -6.47082569378424   -2.46557794571169
C           0.28298313712234   -7.23596093716910   -1.93489742917604
C          -1.03020429349807   -7.14152428679210   -2.43349476838159
C          -1.31867580943800   -6.29729448608758   -3.49688840977938
C          -0.29928091543223   -5.54921609534841   -4.04762866536856
C          -1.87327260215037   -8.03790154034573   -1.67395360207109
C          -1.08113019260782   -8.69475452280053   -0.71796812294569
C           0.35578410597036   -8.23910684074460   -0.80819962389159
C           1.29584339772089   -9.40786793729520   -1.15870515373575
C           0.90191673430848  -10.11896971280615   -2.44786104235043
C           0.82020964603927   -7.57362548195777    0.50185221064978
C          -0.14140503143593   -6.50029531457155    0.99761209582687
C          -1.63495244405736   -9.60183694670958    0.15307790917256
C          -3.00792121675236   -9.86983322189293    0.08350726282688
C          -3.78957163115386   -9.19669850853235   -0.86372963136773
C          -3.23632947193283   -8.29030304168438   -1.74388377161321
C          -3.63842157182670  -10.80378665737499    0.99275924765567
S          -5.26020404867401  -10.49106697743152    1.52719269753666
C          -5.28236137891276  -11.93531035419076    2.49307979531610
C          -4.08551528267194  -12.61665280463600    2.37862727965181
C          -3.15534831447690  -11.97496473294930    1.53480770540242
C          -1.81823702077216  -12.57766821978378    1.22864597974306
C          -1.82948156830707  -14.08638529643148    1.48571137803979
C          -2.69151271285058  -14.80328396725664    0.45635242887089
O          -3.41851283494361  -14.25518156619257   -0.31728265969758
O          -2.58805023881294  -16.14585252437614    0.47329507167256
C          -2.36407195191596  -14.37694198453772    2.91177029683875
O          -1.55717405842825  -13.77367917563106    3.88983535984074
C          -3.83017502702326  -13.94744251105893    3.02134518318822
C          -6.41717390113911  -12.29002311764404    3.27899628152413
C          -7.57993958369727  -11.60952536566509    3.27454953290287
C          -8.74862643976344  -11.89496068328397    4.06948422561643
C          -8.74155777173476  -12.82445859002260    5.12124877262825
C          -9.88475982590770  -13.03216986961506    5.85139686816621
C         -11.06697326087479  -12.32948185717252    5.55318013388381
C         -11.08937027578522  -11.40834753527090    4.51413159749026
C          -9.93439309968785  -11.19748531180470    3.79129684697155
C         -12.09138495602466  -12.73753239198041    6.48528893938369
C         -11.54326398615771  -13.68932021540369    7.36558046353238
C         -10.09711410356870  -13.95758557058529    7.02601420182764
C          -9.87302009750345  -15.42929252200989    6.63228275645026
C         -10.75003372756235  -15.87095393716560    5.46677518485542
C          -9.17614965074552  -13.59202348621488    8.20595542700418
C          -9.35799542952191  -12.15448993749395    8.67667871148179
C         -12.29430236907163  -14.22855685690022    8.37773209530383
C         -13.62830516960220  -13.81592397741953    8.53617098211114
C         -14.18220068337391  -12.91201527540109    7.61034084296098
C         -13.42445764848053  -12.35881548600725    6.60267720252346
C         -14.47376861010927  -14.30529494212501    9.58425878118991
C         -14.13083466054339  -14.69841363315778   10.84392999743131
C         -15.05913190265614  -15.25496964790135   11.81665728607914
C         -16.30196312030425  -15.76879931834492   11.55961922754447
C         -17.15221057351016  -16.31084461939330   12.54736916822343
N         -17.88985334341183  -16.76422974181822   13.30086094601775
C         -16.90326061444963  -15.86022474850079   10.28541847776174
N         -17.45588354592588  -15.99551077381520    9.28801989773459
C         -14.40071479240312  -15.24515044430567   13.11874986590169
C         -13.09384973559356  -14.75625879864804   12.95960053584981
C         -12.84781769745287  -14.41947731762449   11.53946969845186
O         -11.82293269736632  -13.95529301729009   11.09251397373813
C         -12.22631844244267  -14.63284820264932   14.02566241281015
C         -12.67310420190509  -15.01099135560334   15.28515674712060
C         -13.97433227117789  -15.49819659437382   15.45418480825924
C         -14.84526908500711  -15.61845128417575   14.37726903782703
Cl        -14.51623710009020  -15.95635105816034   17.01821939000837
Cl        -11.62359544732353  -14.87871308997347   16.63769590747183
H           7.04833770864198   -3.19237075944559   -4.76968729087229
H           5.62358352584602   -4.11624423499419   -0.09009255871780
H           1.93317289650396   -4.59044237446025   -5.18589126075814
H           2.30336797458573   -6.56198551188582   -2.10611749543306
H          -2.32109345586901   -6.23011986198656   -3.89080463627127
H          -0.50476212501549   -4.88166206123410   -4.87122848725915
H           1.28464456217075  -10.12314136625054   -0.33343011881813
H           2.31383008607880   -9.02309890038041   -1.25119100652797
H          -0.10234961409805  -10.52952176800295   -2.36944787050521
H           1.59261725070100  -10.93391250627823   -2.65178774935914
H           0.92457439159757   -9.43085422732932   -3.28995790917749
H           1.80621564495312   -7.13233473503350    0.33824185921801
H           0.92781259852156   -8.34411776673765    1.26863273943018
H          -0.31145274058208   -5.74610090404852    0.23285889392919
H           0.27152675357090   -6.00921910712056    1.87571681338318
H          -1.10087649529031   -6.93686124196616    1.26510076742147
H          -1.02741474685035  -10.07026738694964    0.91018144479182
H          -4.84814011652758   -9.40685903918025   -0.90394564303688
H          -3.85564287714052   -7.78519091558957   -2.46914226636588
H          -1.03815784863393  -12.12729100713081    1.85171596291102
H          -1.56417723803852  -12.38599076301302    0.18404722408288
H          -0.80411774031218  -14.46970612078409    1.41670363968186
H          -1.94193054264706  -16.46977843384910    1.11430740539732
H          -2.28912336607283  -15.45094058866517    3.12623832073771
H          -1.72710022682164  -12.82429373359819    3.88527052624412
H          -4.10132600302052  -13.92205298076581    4.08070141500059
H          -4.46069800477644  -14.69903259408036    2.53576459268972
H          -6.29675606323410  -13.16794528713873    3.89748144398817
H          -7.66668008202925  -10.76158589282039    2.60551830095724
H          -7.83697931879853  -13.36004624790594    5.36492380686610
H         -11.99076835016933  -10.86199063097699    4.28010042341114
H          -9.93444089478919  -10.47993363956050    2.98339310777283
H         -10.07903749872093  -16.05752347590494    7.50112443191487
H          -8.82237177025829  -15.56273203541767    6.36573552573810
H         -11.80361103040784  -15.77072125558722    5.71811431770743
H         -10.55267366890485  -16.91247380093600    5.22379247265518
H         -10.54931574792845  -15.26793170808416    4.58385912943754
H          -8.13931416399963  -13.74864163216298    7.90003283972098
H          -9.39020381757411  -14.26562522729331    9.03718313407509
H          -9.18514625618204  -11.45327437987450    7.86260590019953
H          -8.65512242396825  -11.93500277706301    9.47661474046252
H         -10.36460512627528  -12.00563388508503    9.05904293727826
H         -11.88116974516822  -14.97851867771547    9.03063961498324
H         -15.21822561951240  -12.62579890783412    7.72139935606096
H         -13.85860590659509  -11.64782134019033    5.91615264974669
H         -15.53032622562157  -14.30885279818630    9.34072587192638
H         -11.22724093109527  -14.25341205714940   13.88001356438569
H         -15.84157563762949  -15.99211914196023   14.54716515115887
