98
 SCF done       -193.060533731738          0.000736520744
C          -3.03669709028027   -1.16586000234045   -0.45370338495835
C          -2.18153222298950   -2.00726026731500   -1.13262403822322
C          -1.87194225809394   -1.87640103859441   -2.49783293180072
N          -1.60143346208854   -1.82439834657132   -3.61383298087963
C          -1.46290327551660   -3.04689387917282   -0.51338362422649
N          -0.83768291914895   -3.88475694178510   -0.03785495057836
C          -3.57926304368177    0.07159636560898   -1.02024368755589
C          -3.99561605565839    0.90503253770129    0.03169761381093
C          -4.51410291982627    2.16094077435868   -0.20155615777483
C          -4.62896113707227    2.59359353364072   -1.51891691526980
C          -4.22858107205628    1.76377858967605   -2.56914199649880
C          -3.70178070573995    0.49864099599522   -2.33025469822082
Cl         -4.37295279453825    2.30718793270285   -4.19219841875976
Cl         -5.26734238298441    4.15450177965520   -1.85138868739894
C          -3.79400188833086    0.19881314150950    1.32054058556108
O          -3.99866749479631    0.62669074707805    2.43414176892564
C          -3.33704993874240   -1.16250962215497    0.95379368060982
C          -3.33691907014411   -2.13277168128188    1.93424379165125
C          -3.40968458492646   -3.52877938762146    1.80099220916359
C          -3.76066453325362   -4.15741605045912    0.61821603765364
C          -3.85382752087207   -5.51880757651657    0.42856925905385
C          -3.48013512941126   -6.46854011832303    1.48320863144901
C          -3.17905547272169   -6.09134761304298    2.74681064932216
S          -3.13597497763670   -4.46040244703097    3.27671346469009
C          -3.49180016409486   -7.74061977419697    0.85215727552650
C          -3.82062743639385   -7.59810509063322   -0.50452350037825
C          -3.82982348222750   -8.83829482502939   -1.18327003279303
C          -3.51676220011987   -9.86345770711617   -0.35133211065682
S          -3.19685380768315   -9.37489344380825    1.28269076480674
C          -4.08640143220156   -6.22221465622316   -0.78083606366657
C          -4.37270057160054   -5.61856840300518   -2.02882973761895
C          -5.06883878773061   -4.45287971046651   -2.15222671538474
C          -5.07353447241910   -3.59885504398168   -3.27688717329712
N          -5.90155934054150   -2.49106701003692   -3.32195246831219
C          -5.57709373680233   -1.75371153907501   -4.41548771027878
C          -5.87384062463624   -0.59594186625320   -5.11808937965902
C          -4.96087659310637   -0.54473269704821   -6.18521590920007
N          -4.14194694448638   -1.65395396334239   -6.14052955119033
C          -4.49840526470274   -2.40993422856356   -5.07230587862158
C          -4.19985875535318   -3.57137849414547   -4.37394140992516
C          -4.88447851504255    0.46945932740920   -7.16583592853910
C          -3.93913495410337    0.56104891418913   -8.13934649342062
C          -3.87610450418900    1.55606301871869   -9.15398139299141
C          -4.83951299912759    2.51519908429506   -9.39467307126129
C          -4.78300529196384    3.46062564322336  -10.40949730691405
C          -3.65298517759587    3.52803150743746  -11.33574365921055
C          -2.58792405476772    2.69532736023264  -11.29138717282904
S          -2.42507275907154    1.44040993091450  -10.13793825968039
C          -3.95484817509894    4.59532893383767  -12.22506543405898
C          -5.18785650913273    5.16373353961696  -11.89879105730410
C          -5.51874605272169    6.22519420573709  -12.77161514033920
C          -4.55400486411619    6.42357329194485  -13.70815742351967
S          -3.20912647991854    5.34412162508141  -13.57905570617229
C          -5.72775426896963    4.46331157402373  -10.75488598691146
C          -6.93814310488852    4.68055555087017  -10.08832251852243
C          -7.88644293148791    5.61831259791534  -10.41613215195153
C          -9.07119396578641    5.74676951920257   -9.68988532789351
C         -10.07151002055808    6.65676477571096   -9.96651015892465
C         -11.30802757392309    6.81898400910389   -9.24507933611937
C         -11.74413319885140    6.09889132679500   -8.15737340149110
C         -12.96998877626140    6.32238371606261   -7.49969330840895
N         -13.95017775123898    6.44871995528595   -6.91394449567131
C         -11.05151961062079    5.03860807963536   -7.54100647032561
N         -10.56104784703133    4.16233721941132   -6.98064799819483
C         -12.05349588211867    7.90538964253138   -9.88411075689477
C         -11.30331493818444    8.39137526577299  -10.96789446847109
C         -10.03253986684052    7.63535861288708  -11.06687268691781
O          -9.16081985298300    7.81127218796972  -11.89662566753576
C         -11.75785272981090    9.41922118720228  -11.76619520813957
C         -12.99576133531770    9.98040591770498  -11.47589232588483
C         -13.74842794451803    9.50517027758161  -10.39945125639352
C         -13.28572534024501    8.46691992536764   -9.59701160461196
Cl        -15.27801999068581   10.20771019309033  -10.04956503091072
Cl        -13.59867925541032   11.26368459317529  -12.44804473579657
H          -4.81952096387084    2.79237466341065    0.61761062728238
H          -3.40982936579408   -0.11622493880117   -3.16544159209792
H          -3.38203918451935   -1.74094810902519    2.94571989243711
H          -3.97992073554359   -3.51262915094460   -0.21876452829221
H          -2.92996555569465   -6.80094131680044    3.52019388648003
H          -4.05634009315847   -8.96389714318524   -2.22634450014409
H          -3.44956352976045  -10.90689020419959   -0.59015263993229
H          -3.97535157562357   -6.09801924363005   -2.91286289252480
H          -5.65938727371776   -4.11555534941114   -1.30847666789278
H          -6.63676481601905   -2.29901766344208   -2.66351471267612
H          -6.62815804394273    0.13621675095511   -4.91189903429550
H          -3.37535102448135   -1.83467720400871   -6.76394603962430
H          -3.42926067898756   -4.28639470430457   -4.57590549040693
H          -5.65619490429563    1.22100396000967   -7.09051612055371
H          -3.13798527600870   -0.16584280181678   -8.16865079867318
H          -5.70509298748684    2.50996360447681   -8.74918360258557
H          -1.76657169002415    2.76162115628283  -11.98683134124311
H          -6.41048353630880    6.82260254989942  -12.73141225184396
H          -4.54400717286907    7.15672052286971  -14.49077317251500
H          -7.14662490472396    4.04177096559720   -9.23781913703594
H          -7.73344202804186    6.27494093319388  -11.25419018864863
H          -9.20600818488808    5.07860527734423   -8.84903051678999
H         -11.16612442621950    9.77693608247030  -12.59388457199448
H         -13.89567995375042    8.12787588028374   -8.77600728233991
