104
 SCF done       -194.417128878749          0.000490209740
C          -9.79078299186145   -0.61378018510420   -0.54457767959227
C          -9.40377354572890   -1.45498573370542    0.46735873619199
C         -10.30191619317731   -2.11904411471120    1.32536186253508
N         -10.99127557902231   -2.66624799909804    2.06240523052376
C          -8.06061655980415   -1.82543397346550    0.68346712202461
N          -6.98434972056518   -2.19086990763284    0.84660547618940
C         -11.15622772154150   -0.45899285932096   -1.04005462335998
C         -11.10373076337254    0.03356194101531   -2.35702916060646
C         -12.24988252953531    0.23733857082971   -3.09722782598915
C         -13.47579330951645   -0.04537643787228   -2.50614960209868
C         -13.53486363033490   -0.52436291233966   -1.19321978211286
C         -12.37734172442589   -0.74006563359801   -0.45286986726750
Cl        -15.05845761221964   -0.85459921929393   -0.47275273445972
Cl        -14.92485885624442    0.19793202898743   -3.39602979515724
C          -9.69237962722876    0.27938850398165   -2.73874862080538
O          -9.26908212581430    0.65686296079771   -3.80630351782240
C          -8.91475927433942    0.02271373080731   -1.50138348760034
C          -7.62856463714806    0.46419532204081   -1.39348699839836
C          -6.88156440725324    0.72467474934916   -0.22650877618246
S          -7.58687038620929    1.04580709578758    1.33796382252031
C          -6.04704041990254    1.33262990969513    2.02426616516170
C          -5.03076556423356    1.19113919559989    1.13388700114823
C          -5.49267421004273    0.86356256577354   -0.16272538668748
O          -4.74666287130440    0.69218656283105   -1.26370448954387
C          -3.42604819187001    0.37655330663812   -1.13737001698182
C          -2.58814145027528    0.54759300047191   -2.16610852170197
C          -1.18383971599766    0.20606351656951   -2.17970105679312
C          -0.39121461211992    0.68953408029928   -3.19589854349346
C           0.98921304304465    0.40500132695893   -3.23012113118360
C           1.99369630442642    0.77372027432449   -4.11595059278581
C           1.90601784296415    1.57379583665820   -5.36687285129676
C           0.75139504661913    1.11766594110075   -6.29729680708295
N           0.95781685661237    1.40834580670401   -7.69757550962218
C           1.79694272219198    3.07687110348236   -5.04911792072274
N           3.06612335975582    3.55573725030745   -4.53138490348966
C           3.22713711346255    0.23086461843590   -3.59396701825199
C           4.49911840217462    0.37087703196686   -4.00771201925986
C           5.63056880286281   -0.23410795238229   -3.24518285317786
C           5.21744830396117   -1.14062027452544   -2.12765505560866
C           3.94132747271191   -1.24195516357385   -1.71050360024439
C           2.91428349282453   -0.54158694738681   -2.38545850442089
C           1.55663566641299   -0.41600906325517   -2.16692422736695
C           0.71537128800171   -0.92322605888380   -1.15122105272307
C          -0.60720146850454   -0.62062131486480   -1.16080299249049
C           6.42401712055734    0.89268529659840   -2.62846596348885
C           7.64112974390871    1.25724446233704   -3.02836892169105
C           8.43663145854382    2.28357431087666   -2.40133494156423
S           8.22618207793658    2.72177826843354   -0.73512631974973
C           9.56106209055508    3.80238832471737   -0.79476356763285
C          10.14065843416125    3.84439307433475   -2.01956504039853
C           9.49672791113712    2.98493589327432   -2.94211213163432
O           9.91296129648851    2.90808024430776   -4.24590328248598
C           8.98267333367886    2.80420149472040   -5.19256771548411
C           9.26455036437673    2.52072315885283   -6.48594009226099
C           8.20136603219867    2.42430913112631   -7.40856729443583
C           8.30551178044364    2.13937865317409   -8.74102953054595
C           7.20940510423114    2.00079061040248   -9.67470340380157
C           5.86514039878363    2.01166824080843   -9.38099333518204
C           4.83866317640007    1.86362940653280  -10.33609891311241
N           3.94434686237136    1.75256921760651  -11.04760814807112
C           5.30975528871290    2.14666024430857   -8.09792814692900
N           4.76736673127292    2.23787958923300   -7.08643911099305
C           7.78367906255478    1.80251382375761  -11.00003657086281
C           9.18621806003855    1.77337627705697  -10.89141482413570
C           9.57857668613335    1.96266869922277   -9.47650043828472
O          10.70560423208793    1.97497732513014   -9.03224641181850
C           9.99663784659798    1.59469095430912  -11.99272663468325
C           9.39594375745382    1.44311350132730  -13.23688381219117
C           8.00171549605368    1.47257076384121  -13.35482655519918
C           7.18764454143832    1.65066152313292  -12.24236377597046
Cl          7.27256921189272    1.28703495774369  -14.89914295500224
Cl         10.37091169212025    1.22024569320013  -14.63249378408579
H         -12.19431922472299    0.60532041590791   -4.10948405317139
H         -12.45446772899780   -1.10767417115812    0.55760159936314
H          -7.13593813239347    0.72399984610044   -2.32553062189223
H          -5.97652628397622    1.60455061176551    3.05879160218354
H          -3.99833257075253    1.35565384886938    1.38387979838047
H          -3.12678298217123   -0.03372430971251   -0.18281054442664
H          -2.98320521171936    0.99878814284513   -3.06616139587468
H          -0.82990786283045    1.31122723929296   -3.96090392091518
H           2.83950771236764    1.43307122511395   -5.92288658708507
H          -0.18130484833331    1.60278736473674   -6.00262316070461
H           0.62042243971831    0.03721130331345   -6.19986681237289
H           1.78076726441758    0.93330149741863   -8.05174730916828
H           1.08477158997745    2.40275272243589   -7.85004086178444
H           1.03445897853634    3.23770511552781   -4.28153304160474
H           1.47710833459704    3.60818001064502   -5.96406457824349
H           3.00575671508734    4.54108263027271   -4.29936435563546
H           3.78279235880555    3.44323764400181   -5.24216291402856
H           4.76199189025431    0.96199840892989   -4.87312342678108
H           6.28427913964894   -0.77080129862032   -3.94505998041522
H           6.01696130394509   -1.66567810260241   -1.62751815942331
H           3.68458946033149   -1.87254046916254   -0.87143491375927
H           1.13489927431499   -1.54898676480291   -0.37698294197995
H          -1.25204134993354   -1.02404723034932   -0.39633307805528
H           5.93869822054211    1.40250368046405   -1.80825813431717
H           8.10791641120315    0.76058894237921   -3.87251979050881
H           9.83204801589862    4.35137022604526    0.08417056325655
H          10.98366902700619    4.45527710649388   -2.28263913770870
H           7.95306404649631    2.97348354186574   -4.88389655526429
H          10.27801389835544    2.35392020398922   -6.81331280214066
H           7.21299112043603    2.58980817197111   -6.99936660662174
H          11.06990447960602    1.57399899006085  -11.88824644305405
H           6.11784870557557    1.66910983221092  -12.37177770484912
