127
 SCF done       -220.804556332597          0.000565491477
C           4.19881986178425   -3.75167002111809   -2.52399716451257
C           5.54089077397062   -4.02180179380114   -2.51579095952825
C           6.51877938321549   -3.18347523773425   -3.09332140054771
N           7.36107734321003   -2.54261500984200   -3.53679931769619
C           6.13780671232673   -5.17838959467032   -1.96827635843029
N           6.70170882876316   -6.09468817342093   -1.56716040088677
C           3.56782897735412   -2.61160905088757   -3.17965839912568
C           2.17340092827700   -2.75785943630308   -3.09528744883402
C           1.30894549037129   -1.82749593491416   -3.63537698470956
C           1.84979131792749   -0.72154357719292   -4.27840232747900
C           3.23831436553212   -0.56482254296674   -4.36368997502317
C           4.10504673337161   -1.50470729692103   -3.81763634289382
Cl          3.89356552172643    0.81222251803366   -5.15316847036782
Cl          0.80929227513604    0.45709596163146   -4.96849387695855
C           1.83689818401080   -4.00026105833615   -2.36516916919772
O           0.71889419742631   -4.39162190781818   -2.11496914682838
C           3.14349323735954   -4.58187057251124   -1.96146045317271
C           3.34616482034805   -5.56997350506288   -1.04515157571964
C           2.39694275257210   -6.48124162278306   -0.47569238278266
C           1.27467865045475   -6.95029609921610   -1.17918610117397
C           0.40313562539579   -7.80981165423005   -0.55864442959615
C           0.60449195116564   -8.18603229560682    0.78337732240320
C           1.73711942358424   -7.76744787599926    1.47289000190894
C           2.63490284725709   -6.94493305614390    0.83096777037757
C          -0.51979078079266   -8.98222059875545    1.21514309893851
C          -1.41654232804162   -9.10509241780793    0.13968576917748
C          -0.86637969148017   -8.42785501281644   -1.09737307489711
C          -1.82979538823692   -7.37236402864488   -1.66041671214160
C          -2.17291796800718   -6.29327416230697   -0.64054278048829
C          -0.57710769629677   -9.54202242315294   -2.13204583913295
C           0.21545138024397   -9.11559279867505   -3.36047325656163
C          -2.59708099612436   -9.79087691567201    0.28707654487395
C          -2.90468167374998  -10.37324411052716    1.52609910463918
C          -2.01339577964369  -10.22069107561214    2.59716046866140
C          -0.82533374538314   -9.53723603592192    2.45128268830099
C          -4.14078552316062  -11.09251508050200    1.71302634509715
S          -4.98285558839941  -10.98691184256221    3.21807235102645
C          -6.30517951113132  -11.96293151804361    2.66364527387249
C          -6.07573925939478  -12.38689971068093    1.34871157969785
C          -4.84020375693531  -11.89949790277291    0.81501208912283
C          -4.42950840981742  -12.32271143129621   -0.46645493206622
C          -5.24137125365900  -13.13686929105579   -1.20372462189406
S          -4.76444601983447  -13.70852909745331   -2.81913078477897
C          -6.50203180521402  -13.57472811994387   -0.70314290630222
O          -7.32039622501311  -14.36596053480673   -1.43466174169685
C          -6.89526991727257  -13.21247762589917    0.55868174731825
C          -7.42748246438768  -12.24119218126622    3.48043895666902
C          -7.55851852810133  -11.83425949295645    4.76349945118807
C          -8.67569676904081  -12.07367710114242    5.63653449169478
C          -8.57480204940869  -11.66048887161286    6.97676307753824
C          -9.62440244617633  -11.85932097702408    7.83717848160810
C         -10.80763312638156  -12.47406836987494    7.38711797130228
C         -10.92079577434311  -12.89298797071980    6.06632054895693
C          -9.86186841377683  -12.69253898797506    5.20859263854304
C         -11.74724426228992  -12.51234546314635    8.47915623711367
C         -11.14826778448805  -11.92610021867096    9.61172269357879
C          -9.71986530530677  -11.53508350997214    9.31231623218414
C          -8.71228782473885  -12.45425613040617   10.04420759011846
C          -8.79778309183069  -12.44909203327371   11.56456882133502
C          -9.45176512902642  -10.05302587526678    9.61109826232035
C         -10.34561451951909   -9.12594931046503    8.79526738612051
C         -11.86050913390216  -11.74358018099731   10.76923088049221
C         -13.19590676288596  -12.18445806610030   10.84057387981508
C         -13.76146570906971  -12.81875309416158    9.71150399228213
C         -13.05961871018873  -12.97299596044534    8.53952160714964
C         -14.04203028850119  -12.05834638050004   11.98394708840244
C         -13.93194329912377  -11.44126552904364   13.20068870204254
C         -15.00118027425725  -11.50464004776073   14.19427222957617
C         -16.09709669973163  -12.32681710505431   14.19018617805060
C         -17.08276278580091  -12.33152250422375   15.20171489484786
N         -17.92103069396338  -12.38931555348179   15.98348540550515
C         -16.41740420033964  -13.30994384712438   13.22797353120605
N         -16.76882377370363  -14.14412227275422   12.52018295536188
C         -14.67654556006781  -10.56810341999131   15.26598417217685
C         -13.41566066499488  -10.01122866258843   15.00499886078315
C         -12.87726041832798  -10.54870097429100   13.73695740056835
O         -11.78887093461159  -10.26911521010164   13.27973045977568
C         -12.82972003719071   -9.09457105548193   15.85388343956896
C         -13.52593712402405   -8.71629243373702   16.99425833470947
C         -14.78858415676148   -9.25834663524454   17.25947694853808
C         -15.37107570147728  -10.18573606155670   16.40304112504489
Cl        -15.64496572578632   -8.77476476208733   18.66784506013240
Cl        -12.83483717875495   -7.57797460439444   18.07844298934087
H           0.24123748044559   -1.95988161258798   -3.55898681334868
H           5.16815111929469   -1.34799150025649   -3.89808315976911
H           4.34795491387188   -5.66238768580915   -0.64047984550394
H           1.11574571710024   -6.63946640987571   -2.19677282478624
H           1.90816085448100   -8.07922268575819    2.49208969142895
H           3.51995767403836   -6.60645866839031    1.35012219350994
H          -2.74408394046055   -7.87269279769066   -1.98804485996738
H          -1.37372498051843   -6.89657877018463   -2.52839211161159
H          -2.58239583868342   -6.73148005676265    0.26761346806971
H          -2.90955653419521   -5.61060312285352   -1.05699189038870
H          -1.28573191336751   -5.71992888399968   -0.38416055224917
H          -1.53913863019578   -9.95019689872359   -2.45221095557593
H          -0.03013647491355  -10.34132399581558   -1.62382479453403
H          -0.27250552687575   -8.29747705805507   -3.88303418412399
H           0.29452608669830   -9.95523101453581   -4.04818025976973
H           1.22120784409229   -8.81009878368191   -3.08547250843560
H          -3.31222837446671   -9.84163548967361   -0.51955159148696
H          -2.26869357558785  -10.66315323482856    3.54912214798477
H          -0.14749714431607   -9.43506118537201    3.28508941979823
H          -3.46127416434519  -12.02681923946170   -0.84048084418209
H          -3.56598275357747  -13.13616855566493   -2.81489940772455
H          -6.92493196108970  -14.56708459495340   -2.29258435370764
H          -7.83686777958157  -13.58358773638160    0.92715866878449
H          -8.20535603708507  -12.82328525895071    3.00855268628076
H          -6.74023493843220  -11.27220800847993    5.19919330870877
H          -7.66527230064891  -11.18387570972807    7.31372639346594
H         -11.82666368273191  -13.36480489675539    5.71573695620855
H          -9.95416804826888  -13.00948934625340    4.18154924425907
H          -7.70799721682141  -12.15087200453603    9.73979390559677
H          -8.86874497729450  -13.47618506418706    9.68757560746457
H          -8.68428813217666  -11.44686390207178   11.96726229075813
H          -8.00122979954364  -13.06923795364226   11.97067832879904
H          -9.74699751008648  -12.85539117163269   11.90232529493392
H          -8.40433356899345   -9.83293220156821    9.39439212187702
H          -9.62506752250564   -9.86772973487130   10.67126361670548
H         -10.18534608032770   -9.27121361726586    7.72887494606497
H         -10.12818369768784   -8.08845778922071    9.03799347661929
H         -11.39417394169599   -9.31613356200340    9.01384051363345
H         -11.41752097601143  -11.25114270683606   11.61590452789165
H         -14.77975517864661  -13.17597031616281    9.77075452756892
H         -13.52022214704175  -13.43699319985658    7.68046165965746
H         -14.99400583394336  -12.55442450554330   11.83085266388818
H         -11.85679699021699   -8.68472345077730   15.63318715631023
H         -16.34578445218039  -10.57729417833106   16.64209034500008
