104
 SCF done       -204.841187940689          0.000755620358
C           0.39037582848970   -3.67036067896950   -3.94796046725331
C          -0.53878693309721   -4.47282812745466   -4.56002558526376
C          -1.28842903735197   -4.08961961945860   -5.69022543183324
N          -1.94139798275293   -3.81628181894006   -6.59399509762876
C          -0.78380872771552   -5.80602863049831   -4.17555988533565
N          -0.98825270975625   -6.90499649071639   -3.91476867346153
C           0.88971811790677   -2.40435923132977   -4.48542501742348
C           2.12819740706340   -2.11506060733243   -3.88469027056755
C           2.85699562404413   -0.99598038193329   -4.23039838836487
C           2.33186030912434   -0.13747066449969   -5.18903962918942
C           1.09417128200602   -0.41168254607276   -5.78093354028632
C           0.36746618381895   -1.54742922723876   -5.43851132411349
Cl          0.45075552508309    0.66655847479506   -6.95208579632505
Cl          3.20796087718311    1.26756461748650   -5.64427500695534
C           2.44399520236020   -3.15705711731637   -2.88202864011791
O           3.44284527043427   -3.26054734988470   -2.20884852199475
C           1.24067202160477   -4.02833466225526   -2.83786361407003
C           1.10352152464548   -4.89859504407400   -1.79269828962627
C          -0.04521074047256   -5.52714565522757   -1.27778483245674
S           0.14732341523443   -6.81509770175596   -0.11534623374871
C          -1.56322799925864   -6.96417185301807    0.08787970890149
C          -2.23648942161711   -6.03376244378089   -0.69289829310649
C          -1.39379891204462   -5.24199217219209   -1.45468862583188
C          -2.12332635509657   -7.92154107073471    0.97183454672447
C          -3.45816917535555   -8.18676707852450    1.21519387667338
C          -3.66027760443250   -9.17293211699941    2.17687162602458
C          -2.48668248056726   -9.68710550475365    2.69189879657067
S          -1.10437143452347   -8.93417231836798    1.95514877640966
C          -2.31734008902648  -10.66174950820430    3.70969975293447
S          -3.67105540124667  -11.36249064065004    4.54560951678582
C          -2.61789810466586  -12.28543067999731    5.58009684207860
C          -1.29585239481003  -12.05706746362005    5.25309432478974
C          -1.12721118009224  -11.15197828943035    4.20934160211041
C          -3.16304604936444  -13.08571290740268    6.62710640780464
C          -2.42468064259416  -13.69471425590701    7.57316842984896
C          -2.98650098620264  -14.41519708787701    8.69377936831069
N          -2.11177514828787  -14.76392445596269    9.64404674619301
C          -2.59647868703850  -15.34469892556671   10.72529529785979
C          -3.94778841414269  -15.59329572794348   10.88847591213519
C          -4.78569797519090  -15.24600884670382    9.81814899403257
N          -4.29393195841036  -14.65648074975464    8.72949942656765
C          -6.20316919016572  -15.53182519428702    9.87877321171876
C          -7.00467759657698  -15.54890651224308    8.79881095110873
C          -8.39722428654562  -15.86206627528502    8.84824738076270
S          -9.23869175922540  -16.38228286302759    7.41757918003668
C         -10.71833104768559  -16.59442697715238    8.30280843960710
C         -10.54920406674903  -16.24542470897246    9.62856251863145
C          -9.24979732782262  -15.84583641473341    9.93244718006588
C         -11.89883437650643  -17.10949370638808    7.69841046377991
C         -13.16344545479353  -17.16856633949278    8.25179708655818
C         -14.09758862561133  -17.79398176208283    7.43172974972879
C         -13.57097436088465  -18.23336647433366    6.23345533240998
S         -11.87845808758564  -17.83679770578643    6.11998731959742
C         -14.23415492752524  -18.95657054832124    5.21134896617880
S         -15.90553848489164  -19.39011965533480    5.37063403063376
C         -15.87802513814728  -20.25183716930440    3.85129848785845
C         -14.61910509958751  -20.16960057560422    3.27194388245739
C         -13.70649468224304  -19.44821138704299    4.02743346636534
C         -17.03858281606303  -20.92043906787083    3.41180149745897
C         -17.12457317454730  -21.69400620258962    2.29057243665238
C         -18.31564311766048  -22.36308741907244    1.95635449391576
C         -18.47461612895907  -23.19958172436007    0.88079522443110
C         -19.67246869760867  -23.92968405641915    0.52156026351664
C         -20.88937409841587  -23.89686768439425    1.15349788508927
C         -22.01606414217700  -24.64076263707315    0.74347781564883
N         -22.97197860184483  -25.21518926740718    0.47112542236920
C         -21.20700155103379  -23.12547156954384    2.29091691208448
N         -21.55107794356368  -22.53179661247007    3.21217821918611
C         -19.36279529606656  -24.72742881303578   -0.66455165210723
C         -18.03044728517944  -24.48657078958513   -1.04052567803539
C         -17.41537112846651  -23.52296036621162   -0.10076717604934
O         -16.27688377138701  -23.10546587598889   -0.14517975194214
C         -17.45841705530748  -25.10436583284300   -2.13325066530950
C         -18.23425769611613  -25.98994273268830   -2.87081810381549
C         -19.56011009109189  -26.24000881127962   -2.50166338086824
C         -20.13314378918039  -25.61275569292705   -1.40067309519895
Cl        -20.50752518094382  -27.34196432162774   -3.41753357669439
Cl        -17.55985361081293  -26.77992396846685   -4.23841971849189
H           3.80977240954004   -0.79437699712258   -3.76696863556697
H          -0.58364966959006   -1.72789103458684   -5.91263233808195
H           2.01743121624789   -5.05879582063935   -1.22757021320175
H          -3.30698151192343   -5.94306376118396   -0.69999534586248
H          -1.74361795172551   -4.44170230244789   -2.08220785687906
H          -4.25729384756698   -7.67769382307244    0.70841595701991
H          -4.62805135708328   -9.51049677560518    2.50281583522668
H          -0.47767705375059  -12.53429543496768    5.75989338914475
H          -0.17162593972254  -10.84519503355003    3.82161367108314
H          -4.24003155003631  -13.16750410646658    6.67748024729406
H          -1.34795665428348  -13.62437415727612    7.58765865510074
H          -1.87140772556577  -15.61144667673333   11.48452970213519
H          -4.33910451324523  -16.05317557805098   11.78132034692703
H          -6.58919206748249  -15.78794574634738   10.85552904416428
H          -6.56945679909254  -15.35682543652180    7.82787804390594
H         -11.34022867173380  -16.30024840200093   10.35386421105312
H          -8.94110296536763  -15.53533568925038   10.91402762704802
H         -13.39788811824586  -16.76480507118738    9.21935032264521
H         -15.13098613319032  -17.93771866779460    7.69346594874032
H         -14.38310179900952  -20.62721620040652    2.32862208463081
H         -12.68151712120270  -19.28172869639666    3.74591740061931
H         -17.91607991216052  -20.81745242733555    4.03934384271851
H         -16.26946753428325  -21.82337146839399    1.64633825439304
H         -19.15737334111066  -22.20759742323447    2.61897740815578
H         -16.43426064588949  -24.90306402282714   -2.40496218965411
H         -21.15734310941138  -25.83196498130748   -1.14775923550563
