97
 SCF done       -202.997619112121          0.000635100088
C          -2.12908109797873  -11.64611900388229   -3.68010644111743
C          -0.95005258607678  -10.94749734550284   -3.61861273646467
C           0.31960794184347  -11.55246166288349   -3.53476056115380
N           1.37443349301485  -11.99530476651551   -3.44256800947843
C          -0.88576657251441   -9.54356107578772   -3.73383588521862
N          -0.79947902174528   -8.40684366565917   -3.87260553864329
C          -2.25047219605968  -13.08676277714807   -3.88702340206082
C          -3.52790850442338  -13.36281152636635   -4.40944501245553
C          -3.91053053843611  -14.64589895026406   -4.74229142891489
C          -3.00245830796764  -15.67860365360395   -4.53835128269448
C          -1.73443328390223  -15.41180729050378   -4.00883218357894
C          -1.34746397131861  -14.11561743082900   -3.68459108248548
Cl         -0.62991687909887  -16.69982873738545   -3.75058664431236
Cl         -3.44246308102752  -17.28912887208705   -4.93785385442868
C          -4.30474036838713  -12.10652298357514   -4.50579532732323
O          -5.40882783249675  -11.94465657763831   -4.96609177540139
C          -3.44595618260094  -11.07726579624697   -3.85608868765234
C          -3.99060972167084   -9.88275792276894   -3.48794862782453
C          -3.52946855344788   -8.94129172889913   -2.52973525338854
C          -3.95418346755697   -7.62827020435132   -2.55921330914933
C          -3.52886815386259   -6.63956602663870   -1.68288687705843
C          -2.59714190998571   -6.93811843218457   -0.59457655415824
C          -2.10590239214240   -8.16948604094214   -0.32987152806016
S          -2.48149614231182   -9.55669510398766   -1.25534873535265
C          -2.37420744020095   -5.69908229677412    0.06284580936593
C          -3.10699817888826   -4.68282441880370   -0.56164497360227
C          -2.91671294166845   -3.43955391057558    0.08642233353967
C          -2.06919296749118   -3.54536845303556    1.14273997433930
S          -1.46541751213623   -5.14471670730229    1.40596906926879
C          -3.83880845447098   -5.25642117822289   -1.66218436752442
C          -4.70652897737283   -4.61346084486023   -2.56666690937866
C          -4.91823794517806   -3.26999023445437   -2.63739689893936
C          -5.79953281920673   -2.64355679215593   -3.53885622073424
S          -6.81129203003797   -3.50334405036583   -4.65504772073020
C          -7.49692582695846   -2.03196915384856   -5.29601304464361
C          -6.94512074643155   -0.92352675607915   -4.64865107818428
C          -6.00472869044246   -1.26822313322056   -3.67197649553290
S          -5.07363549236247   -0.17708075195091   -2.65283663015026
C          -5.58600983981465    1.48563032972987   -2.93628062353043
O          -5.02722439282232    2.34208493446817   -2.30776401973587
C          -6.67217995064108    1.86342768798965   -3.91535373299196
O          -7.02340419243428    3.00706016219498   -4.00415601489110
S          -7.45329631942215    0.72041176534716   -5.01725692982262
C          -8.47447144673900   -2.16782623985307   -6.30887904121515
C          -9.05234291710838   -1.16813481524670   -7.02469636196622
C         -10.06509873667325   -1.31828342611069   -8.01334742351409
C         -10.69673687031612   -2.49826266105655   -8.35088273949013
C         -11.70123009566635   -2.61370971571966   -9.30275340384581
C         -12.18545578156491   -1.45508613274107  -10.05322612775878
C         -11.71047856971128   -0.19742610528458   -9.89448013068966
S         -10.47514009874490    0.20698106792962   -8.78320904218776
C         -13.20098099986640   -1.95572080497289  -10.91095742531196
C         -13.35763212986160   -3.33262947311322  -10.72398368903099
C         -14.36913641674703   -3.85805638431240  -11.56075539674900
C         -14.93176956485227   -2.89251485609248  -12.33393416739805
S         -14.27047761855381   -1.31300133091866  -12.08955598333841
C         -12.41992988206344   -3.76690394641752   -9.71525035437441
C         -12.21938891378394   -5.05828281376971   -9.20819195019686
C         -12.89613984274760   -6.18479014188551   -9.59787715845797
C         -12.63176786444367   -7.43914206389255   -9.03786618527171
C         -13.27331912549933   -8.60454574153868   -9.39467439949743
C         -13.03687952732425   -9.92138389444998   -8.85173272550961
C         -12.16081269187399  -10.26682392031592   -7.85143051814477
C         -11.99123552175890  -11.58069177009353   -7.36836403154104
N         -11.80953827837515  -12.62406541722895   -6.92456691532417
C         -11.31600266165471   -9.37823977369999   -7.15649918076370
N         -10.60113716943793   -8.72101203632769   -6.54163058033445
C         -13.91879368809274  -10.85363562155331   -9.55591755266309
C         -14.68583836293750  -10.13502166933909  -10.48842984990891
C         -14.32408060169193   -8.70101628312547  -10.42675092113634
O         -14.80919645569847   -7.81222354913369  -11.09941602461388
C         -15.61123111272038  -10.75312722102697  -11.30280633531397
C         -15.77658913493388  -12.12788197654858  -11.18675682475974
C         -15.01698427625270  -12.85201879650064  -10.26340116008694
C         -14.08567114225971  -12.22356910576824   -9.44295557575414
Cl        -15.22830733448387  -14.55228182944764  -10.13074260729062
Cl        -16.91817968332381  -12.93638904632241  -12.18428281202561
H          -4.88965458972816  -14.84047426122262   -5.15058364500912
H          -0.36504396766775  -13.94238213178453   -3.27597978605172
H          -4.95032845072137   -9.65983026804003   -3.94464019398866
H          -4.62555623740433   -7.36117975469206   -3.36407230517018
H          -1.43463209544009   -8.36408035855159    0.49164884658184
H          -3.37325335688878   -2.50657639313114   -0.18703978915045
H          -1.75058015636522   -2.76384933724896    1.80443978967745
H          -5.23797551672030   -5.24336232690156   -3.26912130524122
H          -4.37761187594862   -2.60235140528174   -1.98526575420406
H          -8.75141008075756   -3.19414472746612   -6.50817863488497
H          -8.73119528415317   -0.15061347796683   -6.86131191966500
H         -10.38800856655791   -3.38838184222410   -7.82280955404150
H         -12.08482718507128    0.64018884443066  -10.46141354864148
H         -14.68332056297337   -4.88414402242546  -11.60830586854201
H         -15.71741010845458   -3.00876453986923  -13.05461278669480
H         -11.46150764834341   -5.17003010951608   -8.44163976586125
H         -13.65565811147326   -6.12396881481049  -10.35683933910405
H         -11.86496885191924   -7.48501816293857   -8.27547271241405
H         -16.18971719909596  -10.18162192375485  -12.01131846074568
H         -13.51905158858600  -12.81671611351192   -8.74432945951006
