116
 SCF done       -220.900580207546          0.000761214178
C           5.92184405009673   -4.95218959461519   -7.23527856872332
C           6.33023939053344   -3.65053774008828   -7.19108876006395
C           7.67051243254147   -3.24436795408538   -7.36784291949175
N           8.74670201646418   -2.87096267037346   -7.50221656698347
C           5.48647061458048   -2.57431451307449   -6.83574919007640
N           4.87846288775093   -1.68232079644062   -6.44675784291353
C           6.79325866340636   -6.12204978624255   -7.30341406711953
C           6.08326517111562   -7.25248680372346   -6.85279888225340
C           6.67878412226594   -8.49602295378000   -6.77066071845022
C           8.00755622560060   -8.61801416363887   -7.15584806558167
C           8.71541046042237   -7.50093386298655   -7.61978103378199
C           8.11586490266598   -6.24837536781526   -7.69371474741024
Cl         10.35070185895868   -7.67247367361669   -8.10659352756926
Cl          8.78324887915357  -10.14606351156226   -7.06588561399674
C           4.69380352810701   -6.87056506177614   -6.53325133075027
O           3.81319105485440   -7.55341157791190   -6.06819596829389
C           4.58230418457532   -5.44693496277055   -6.96986889513150
C           3.35952567810716   -4.89745536310999   -7.17511854406986
C           3.06409581931948   -3.71869274036867   -7.91546512108726
N           3.91198005075036   -3.22514564399280   -8.80848159964910
C           3.29402084583477   -2.15679284607121   -9.34930624261028
C           1.96652329704840   -1.95208372614895   -8.76451981795040
C           1.33285731214610   -0.75791582539209   -9.34266152918012
O           0.23872144845901   -0.28792865308350   -9.10547422864814
C           2.35789341386562   -0.26770597758235  -10.28389079396617
C           3.53627522534928   -1.15770548861714  -10.26451514474846
N           4.48940366657053   -0.71229502306783  -11.11646828045205
C           3.99191401280824    0.38070181652671  -11.64432818422632
C           2.66542692745725    0.71869844303489  -11.16449393911709
C           1.80215971001802   -2.95500322499676   -7.83531101793914
C           0.74501560672082   -3.22188517390939   -6.92204412642466
C          -0.37547528139084   -2.46449829723902   -6.87047714736286
C          -1.46112148916013   -2.59393474242669   -5.94006014036998
C          -2.45811055398565   -1.63222064957242   -5.97098629172171
C          -3.50211095498232   -1.65480183751106   -5.03379536066798
C          -4.58365575853093   -0.79534684169118   -4.82011878390987
C          -4.98182366435128    0.41481552820660   -5.58257460115107
C          -3.85960508953224    1.46382196161360   -5.70089835230258
N          -4.41403620759553    2.69617500547703   -6.22786086624353
C          -5.49765002483303    0.03024615402145   -6.98745903998029
N          -6.74905746417492   -0.68847247634033   -6.85158005351486
C          -5.31525398818012   -1.32019134351376   -3.69286921016613
C          -6.42211337921933   -0.87337463676643   -3.06797448177647
C          -6.99426844962764   -1.59067997294342   -1.89944130239442
C          -6.21751008726349   -2.79206092997843   -1.45411636122085
C          -5.12406704286230   -3.23766437101213   -2.10797709172502
C          -4.63100701980744   -2.53350264362595   -3.22572013216992
C          -3.53405789212078   -2.72629468814108   -4.04990990806310
C          -2.53138566259432   -3.71889908801760   -4.06115964558096
C          -1.52673334812301   -3.64702788122158   -4.97377242881961
C          -8.35341890140635   -2.14502552081776   -2.23126111875268
C          -9.37148407562314   -2.16886769046633   -1.35691178436861
C         -10.63118012624463   -2.76470804781043   -1.66273420737291
N         -10.89511788553529   -3.29208675598324   -2.84884924739631
C         -12.15701366617612   -3.75428174529024   -2.77696417418436
C         -12.73787333950159   -3.52574101307971   -1.44561119571777
C         -14.13773813909229   -3.99586490561754   -1.40089418234590
O         -14.92604366147867   -3.92399303258156   -0.48663232435967
C         -14.33252397696443   -4.53905685838441   -2.75672024850951
C         -13.10386509108332   -4.37097151680446   -3.56254644987070
N         -13.28178586926732   -4.85551758720155   -4.81311881219914
C         -14.51666046057587   -5.30200333054104   -4.83470369262240
C         -15.22940140794422   -5.13279517622069   -3.58653991980057
C         -11.76671489818711   -2.88461696139863   -0.71591768834245
C         -11.76510560956410   -2.43271167913868    0.63115877765047
C         -12.66465009610309   -2.81087614799823    1.57624564967082
C         -12.55507100061929   -2.31071040806193    2.89705873253066
C         -13.27663292651340   -2.73379698231981    3.97394949693614
C         -13.22030738200003   -2.19471704641868    5.32139457939619
C         -12.33977058085607   -1.26154563742511    5.80218040069371
C         -12.33441052082164   -0.78671186564541    7.13189148272015
N         -12.27130137542621   -0.35635836382510    8.19384350424287
C         -11.29668863581368   -0.66093610776282    5.06571089651944
N         -10.41857469470613   -0.13747175110767    4.54240040934284
C         -14.26029183780474   -2.85924393853799    6.10244237839326
C         -14.88925129487148   -3.82713990371530    5.29996935560369
C         -14.27888360842601   -3.83263740524772    3.95083736655365
O         -14.52152260580067   -4.60035754886442    3.05075867952328
C         -15.90879405048388   -4.62193512307951    5.78193390102788
C         -16.31822277763554   -4.44376914413246    7.09752786879146
C         -15.70083134919599   -3.47906441471393    7.90329010522833
C         -14.67090080608881   -2.68364948397145    7.41476248390204
Cl        -16.21683294519945   -3.26799395259622    9.52708557939959
Cl        -17.58387491919789   -5.41084139862524    7.73578708316604
H           6.12391610759773   -9.35005130592128   -6.41552468898441
H           8.68446035482789   -5.40933837935017   -8.06062886873944
H           2.51792956012888   -5.47207303978099   -6.80385812872058
H           4.55827212513604    0.94062123687944  -12.36803547254520
H           2.09111257271622    1.57109763979612  -11.46943516138170
H           0.89266030638965   -4.04857042388464   -6.24180580832071
H          -0.46365984418882   -1.64523773102249   -7.57254656787695
H          -2.40782748484815   -0.85439283417526   -6.71682835538516
H          -5.82301395535807    0.88961013904525   -5.06931416784183
H          -3.09763641193489    1.12425005285509   -6.40330618001165
H          -3.38357548068034    1.58044902781518   -4.71237126841568
H          -5.03065454999559    3.13350589868738   -5.55167154023153
H          -3.67820136421020    3.35356705160897   -6.45590327602004
H          -4.71568953570631   -0.53697216499977   -7.51428344730770
H          -5.68569249951454    0.95741376409941   -7.53171004929743
H          -6.59114443557926   -1.62449871299572   -6.49348630515159
H          -7.22635064250906   -0.76322838072841   -7.74129152983721
H          -6.95717409942608    0.00318814139122   -3.40395949690313
H          -7.09786317868711   -0.88616363698097   -1.06289632245296
H          -6.60455039245806   -3.31062028579661   -0.59108437722983
H          -4.60067771681992   -4.11825644094410   -1.76543583619017
H          -2.56858593148064   -4.52179512411252   -3.33997393863254
H          -0.75799231983462   -4.40321194019669   -4.97627356279337
H          -8.47428706971092   -2.60569857260375   -3.20003824073036
H          -9.25628177527856   -1.72774659020723   -0.37611516522485
H         -14.91633242789533   -5.74645173824208   -5.72972381149683
H         -16.24305122875783   -5.42788070010502   -3.40109959857252
H         -10.96184600303450   -1.76596949441256    0.92334353078285
H         -13.45937123031244   -3.50436694034432    1.34083122955211
H         -11.83359352988253   -1.51583276893341    3.04351909460200
H         -16.37454600251686   -5.36036078225866    5.14857610927285
H         -14.22056149963445   -1.95180034602650    8.06501398444747
