102
 SCF done       -200.344097037977          0.000298823002
C           1.95544499244187   -5.13016238001819   -1.85845591825868
C           1.78477764300836   -6.48422429019166   -1.85891236444043
C           2.71128817690738   -7.38563239771126   -1.28954958237562
N           3.44142181238283   -8.15092191173441   -0.84689463387942
C           0.58579160733425   -7.12861742835300   -2.24922622133548
N          -0.40438528553705   -7.70494793342437   -2.33731166808098
C           2.94346027221042   -4.40465849897968   -1.06160302758412
C           2.47972142328595   -3.09099874613918   -0.84937562493961
C           3.13599428267747   -2.21965429145352   -0.00019519734318
C           4.29680972785647   -2.65601427609410    0.62077147953792
C           4.80923428894872   -3.93250656946657    0.34863146297617
C           4.13066492969652   -4.81738137655554   -0.48312007021723
Cl          6.27983833607750   -4.42292632598098    1.06831713785262
Cl          5.09803358076420   -1.63256968272955    1.73860408309161
C           1.26535974814910   -2.85905100347477   -1.64682500610202
O           0.62461085019111   -1.83878648778499   -1.75478354525438
C           1.03077282495993   -4.14093373574175   -2.38340867175271
C           0.16993709516402   -4.14760028997256   -3.43269470900529
C          -0.00809197579165   -5.15969900881129   -4.41579473275605
N           0.71309221416156   -6.26900923664250   -4.44496626230715
C           0.17141672464204   -7.04797025311146   -5.40399719551800
C          -0.99692249695166   -6.39441141250213   -6.01090480765563
C          -1.60826896008104   -7.26119378069669   -7.03480639078591
O          -2.57105184690840   -7.03994670377847   -7.73080646829880
C          -0.73967178291612   -8.45766113612684   -6.99268862805264
C           0.33869516403132   -8.27562932536683   -5.98913925666030
N           1.15638977828810   -9.35689427708560   -5.96456659689742
C           0.66854999483244  -10.17576259938143   -6.85976974708511
C          -0.51150836529308   -9.67149040417710   -7.54818100030515
C          -1.08679170208067   -5.15827288991525   -5.43728392986176
C          -2.00103631970158   -4.09378364317703   -5.72850786488909
C          -1.59133205663091   -2.80834264827120   -5.76589915602280
C          -2.36502763752824   -1.62691068627663   -5.95451337297705
S          -1.54270488022056   -0.18820994140618   -5.44455959269123
C          -2.96359833311013    0.78131834009809   -5.69327716341760
C          -4.03610225621247   -0.01808342097218   -6.11686608108128
C          -3.67115473125461   -1.35247276104355   -6.35742675612933
C          -4.56520618898754   -2.30347473056967   -7.10397348165864
C          -3.83255896036322   -2.91429956578224   -8.30405280123423
C          -5.80048774423976   -1.55257908263220   -7.61292857169688
C          -6.39938103915142   -0.68065102661121   -6.52148960253058
C          -5.44875450008311    0.47054330682012   -6.15932995358329
C          -5.84463646929549    0.99954027307370   -4.80307458598237
C          -6.53008487388457    2.10835790033061   -4.60728379140373
C          -2.92714814379326    2.17480235989005   -5.50262404453390
N          -3.98437203152490    2.96161097983673   -5.66899951087823
C          -3.59710868266713    4.19287885899108   -5.31554688513695
C          -2.18184312084093    4.20854447932291   -4.88539119502960
C          -1.75759374786056    5.58178130051797   -4.53317372549398
O          -0.66625405151449    5.96100064568918   -4.17848359428708
C          -2.99327896041275    6.35299445592160   -4.74727940687933
C          -4.08270559022953    5.47545560357462   -5.22503537845541
N          -5.21140908913241    6.18932845120555   -5.44289231096638
C          -4.89660461639994    7.42858663300593   -5.14140173917084
C          -3.52971466595625    7.60217632237930   -4.70634724733848
C          -1.72953379073808    2.93783901770873   -5.03735023007821
C          -0.43633642007934    2.33713327790290   -4.88565146076492
C           0.32225918993399    2.30052296092070   -3.76811318733211
C           1.43698782911696    1.42369321427661   -3.73122918151553
C           2.26940266505305    1.20948428456178   -2.67711939927813
C           3.31410542140842    0.20877022820640   -2.61713903112688
C           3.35197127728394   -0.96329092021574   -3.32552432435109
C           4.32013546720689   -1.96690180529213   -3.11780700442214
N           5.06213877970625   -2.82963578685067   -2.96486503528658
C           2.36378919244755   -1.37701749419686   -4.24090729111605
N           1.58790116676612   -1.81084952951238   -4.96877461902160
C           4.22414306885860    0.59202722324694   -1.54585358741900
C           3.65028890379483    1.65617882539930   -0.82588630073724
C           2.35895804191365    2.04300673259307   -1.44873603299596
O           1.57461742956688    2.86765307473686   -1.04825706486594
C           4.28930987499699    2.21699981730865    0.26058434523399
C           5.53935031691480    1.72435273991295    0.61903674006349
C           6.12988624101591    0.68776845273813   -0.11521703557890
C           5.47228304190583    0.10692460170507   -1.19371269454738
Cl          7.69027482135844    0.11818749890989    0.31366904141746
Cl          6.36513789074651    2.39585140146766    1.96417042397411
H           2.74307085686553   -1.23302915687261    0.19033354727450
H           4.54293834821769   -5.79674608452378   -0.66318974340353
H          -0.42347997774179   -3.24830939302587   -3.54428533749815
H           1.13300316345694  -11.13082460115975   -7.03389266769595
H          -1.05118205750795  -10.18894891585484   -8.31627743845398
H          -3.01403629139232   -4.38661312993169   -5.96171850373460
H          -0.54268599819042   -2.60352774427585   -5.58249822912084
H          -4.88885437109601   -3.10569033868385   -6.43037595713627
H          -3.49367305634429   -2.12462153333890   -8.97163057741828
H          -4.51303055476009   -3.55979294220100   -8.85355413722276
H          -2.97083391721138   -3.50387511587025   -8.01039991368851
H          -6.53684091764009   -2.27545432529654   -7.96646200652070
H          -5.51492268798433   -0.92273175927910   -8.45844290335524
H          -6.58149487363416   -1.29026159901175   -5.63282789759151
H          -7.35512733080730   -0.26481716203005   -6.84019740643225
H          -5.53095032467495    1.28434305601148   -6.88554330910356
H          -5.56926458925759    0.36410263711532   -3.97040252003960
H          -6.80349227335088    2.75878443647069   -5.41938564161928
H          -6.82901694524510    2.42075145344499   -3.62130829076055
H          -5.63105373966959    8.21034376417745   -5.22948555424505
H          -3.07769029064364    8.53125864803321   -4.42078964282621
H          -0.08322625185006    1.79964080241472   -5.76127380565876
H           0.04904652153225    2.84602532548051   -2.87801187353045
H           1.60809846824690    0.84397321975477   -4.63194500197500
H           3.83289208277229    3.02370997242338    0.81227704993869
H           5.95062223645799   -0.69086108005247   -1.73860440178422
