120
 SCF done       -206.812913785460          0.000524087631
C           1.08509866243798   -1.75301997890317   -1.85582665198498
C           1.49271820191548   -2.58060394746465   -0.84505434212719
C           2.84402263206723   -2.79276946438340   -0.50169727822292
N           3.92957891702395   -3.01373839762257   -0.20227606707253
C           0.60726904244692   -3.25135080101491    0.02521238383875
N          -0.05846814681005   -3.76610775464916    0.80518092979833
C           1.94363218433343   -0.83437588854241   -2.59852097401522
C           1.14313485390996    0.16622414266573   -3.18037003523587
C           1.69426154461689    1.19499338759866   -3.91703417550859
C           3.07313117853842    1.22029207930696   -4.08656509394080
C           3.87413116127104    0.22110990083894   -3.52072332825676
C           3.31748314458578   -0.80854222329015   -2.77047108538909
Cl          5.57476952361840    0.25783518347502   -3.75304631314616
Cl          3.79562044830244    2.48316890155119   -4.99831502526517
C          -0.28196211792783   -0.10386868988244   -2.88377117923212
O          -1.24166244844573    0.57002700066003   -3.17318342424597
C          -0.28662700837842   -1.42650067752714   -2.20122357561931
C          -1.43868201932819   -2.13302589611579   -2.09067204115156
C          -1.59546711244766   -3.53736504208523   -1.82625518493479
C          -2.74298691372351   -3.99128760889026   -1.15687953330350
C          -2.88228721506859   -5.33056744146745   -0.89424297676981
C          -1.91209528085125   -6.24997633778092   -1.33559807705978
C          -0.79955959033875   -5.81610168315785   -2.04549990317235
C          -0.64410289303363   -4.46685117694032   -2.27432092721224
C          -2.32222115452355   -7.57638553958466   -0.94078798445689
C          -3.54523184483668   -7.48186851153450   -0.25378945489649
C          -3.99153771231731   -6.04235517483424   -0.15796815761138
C          -4.06885445039265   -5.58128244762571    1.31073470582815
C          -2.75187582743532   -5.75138166997708    2.05816768537512
C          -5.35572432032930   -5.82847125445935   -0.83940603834735
C          -5.36206240243674   -6.26134402062891   -2.30075413736145
C          -4.17317634225618   -8.60613729710662    0.22231820971491
C          -3.58405638739820   -9.86526658132199    0.01934152574617
C          -2.35349001482999   -9.94105422466995   -0.65690486426463
C          -1.72209790504171   -8.81458772777660   -1.13555270648062
C          -4.23300944714266  -11.06576366858146    0.48255669158618
C          -3.94893741229711  -12.35919237536269    0.16730404773431
C          -4.85076259041244  -13.26650259143997    0.82714308479152
C          -5.73907522751864  -12.57208291815978    1.58792329447976
C          -5.39846890097230  -11.11050622538864    1.43107327042710
O          -5.96213805090065  -10.19810821817640    1.98161388824794
C          -6.81922888410420  -12.98220765974283    2.41133509181141
C          -7.24680907103786  -14.25955761956268    2.54219615205218
C          -8.34813736912691  -14.71985318142942    3.34488461302284
C          -9.03218371777641  -13.88604171785586    4.24650738382211
C         -10.08182227786175  -14.38700065222761    4.97586044434905
C         -10.50745894350142  -15.71755653057941    4.78965678758603
C          -9.83352366205236  -16.55766023728857    3.91229758689748
C          -8.75657690064007  -16.05779178395898    3.21382849964141
C         -11.68358149260025  -15.94410663660990    5.59423432294991
C         -11.98553992190824  -14.75776473392613    6.28654164027892
C         -10.94302999865507  -13.69759852410109    6.00924718927439
C         -10.17472193131020  -13.48603653375449    7.33736995530600
C          -8.98377257686072  -12.53979449444005    7.27048038863689
C         -11.55816805999903  -12.39092676606498    5.49046078789676
C         -12.43038816624077  -12.61022990711722    4.25929326315948
C         -13.07500175358182  -14.68447603828555    7.11701366348936
C         -13.89436897597240  -15.81436835937474    7.27431795841856
C         -13.60759633170775  -16.97968159790175    6.53803673199338
C         -12.50565838923854  -17.05971826972521    5.71742040842602
C         -15.04802075361756  -15.83087683452826    8.12488474068878
C         -15.28215363412406  -15.14204884821592    9.27705864495646
C         -16.52863697400340  -15.20554063818082   10.02759996797925
C         -17.74329227932894  -15.62382856222010    9.55520978791088
C         -18.92511097891288  -15.64550364006670   10.32692413673379
N         -19.91494344205820  -15.69505193075434   10.90549991676576
C         -18.00145202165193  -16.05408160066036    8.23515751140590
N         -18.30088268726485  -16.39496417912029    7.18050070620949
C         -16.27793329754360  -14.65851174096034   11.35608149385911
C         -14.95460147101205  -14.19072935785299   11.40773988649081
C         -14.28157722169829  -14.42555321975060   10.11062682512240
O         -13.13771705942395  -14.13013458969061    9.84659821016890
C         -14.42971631672886  -13.61361169367911   12.54617744482965
C         -15.24669672373154  -13.50045281740171   13.66366527438965
C         -16.56582887366108  -13.96753549819537   13.62290140163891
C         -17.09039329599502  -14.54715748368953   12.47332404338249
Cl        -17.56193266548673  -13.82970372251796   15.01476183404705
Cl        -14.63329222066712  -12.78673010059167   15.09968275863414
H           1.06814825689982    1.95914876815413   -4.34975577123367
H           3.96078225076687   -1.56493284624033   -2.35078306629904
H          -2.34705625544106   -1.57265545128935   -2.28974175595663
H          -3.47802484610417   -3.27453955941715   -0.82192619408066
H          -0.06764148000289   -6.52077841394348   -2.41021759116972
H           0.20305410517747   -4.11509709874176   -2.84599567443080
H          -4.84890479883007   -6.15900525981580    1.81100988302867
H          -4.36393686871435   -4.53013893501947    1.33073660964541
H          -2.44670987344146   -6.79557228247029    2.06538931450541
H          -2.86728515597931   -5.42235029177041    3.08813917967141
H          -1.96214202630488   -5.16346804317682    1.59765628174566
H          -5.61878466893202   -4.77083632422701   -0.77297593912442
H          -6.11018764234245   -6.39546659116792   -0.29094051380835
H          -4.63057002405853   -5.69585289132892   -2.87428485957081
H          -6.34438714119461   -6.09352458010021   -2.73614343705613
H          -5.12337904226465   -7.31900348743804   -2.38923401201582
H          -5.11293513072830   -8.53395214796068    0.74482351857014
H          -1.88663326605541  -10.90416265789599   -0.79204521619608
H          -0.77624500236868   -8.89385145182844   -1.65041985003633
H          -3.17647680723232  -12.69961170083281   -0.49884079970005
H          -4.79879757697189  -14.33381540432640    0.70928310140064
H          -7.31635896962821  -12.17392714894401    2.93110318413058
H          -6.73744787853904  -15.02770076358458    1.97423049740484
H          -8.73187761656100  -12.85648729319666    4.35421417431218
H         -10.15032182358200  -17.58087728782728    3.77644959046018
H          -8.22136605207336  -16.69899527550042    2.52799947409386
H          -9.82660171153100  -14.46427872055815    7.67937732232448
H         -10.88815538472170  -13.11929185752856    8.07765511327211
H          -8.21527221035210  -12.92470442858895    6.60524047571502
H          -8.55039042786051  -12.44217918840294    8.26340281283836
H          -9.27945510596028  -11.54918810173225    6.93562009964917
H         -10.75820822938651  -11.69431560169907    5.23788296473151
H         -12.15502745804186  -11.94344320869481    6.28748435181690
H         -11.84837364322408  -13.04714640147237    3.45039988585834
H         -12.83847832352526  -11.66263536494977    3.91546713755343
H         -13.25813692674300  -13.27906109874827    4.48503011924951
H         -13.32377688606166  -13.76514423451818    7.61852094854361
H         -14.25873219638431  -17.83520455537952    6.64601680526600
H         -12.28991958421904  -17.96714736506888    5.17395913242693
H         -15.81142263398274  -16.53821787766686    7.81966825394509
H         -13.41073574216421  -13.26050361685057   12.56367791822303
H         -18.10848860832702  -14.90021339573511   12.48037990347541
