93
 SCF done       -196.293065156399          0.000815910656
C          -4.56044904228903   -6.13600415253787    0.07405649010529
C          -3.81775549195896   -6.57816556709704    1.12996919372610
C          -4.17702107239856   -7.68872409238688    1.92450751199316
N          -4.42914328957324   -8.58618376455923    2.59252932149498
C          -2.70274265994981   -5.88251098856048    1.65698053154603
N          -1.92514840672443   -5.28946839216073    2.25990593439166
C          -5.90886030127966   -6.57713931275745   -0.27509645557440
C          -6.52138082703986   -5.59836025572154   -1.08355811180518
C          -7.82615798558877   -5.73015627811884   -1.51974001046002
C          -8.53055002911353   -6.87148768724708   -1.15930842716059
C          -7.91879604254031   -7.86015622417465   -0.37575133843253
C          -6.61119754501920   -7.71712432981529    0.07604208882752
Cl         -8.78955641744516   -9.27769767091186    0.03238588554122
Cl        -10.14360165563573   -7.07904386798892   -1.69845406759891
C          -5.55558634762845   -4.52804031672048   -1.37839918154525
O          -5.72316505393433   -3.51329808810532   -2.01437641581515
C          -4.27105230416730   -4.99000014031410   -0.76570388515835
C          -3.10956501359675   -4.42957553139456   -1.18615366188233
C          -1.78619495994539   -4.90606584449562   -0.99807025537465
N          -1.50102656023528   -6.04891180626867   -0.39553207112305
C          -0.16276263382526   -6.19071390474554   -0.46544617408782
C           0.45313504061036   -5.06528024069430   -1.17938019743034
C           1.91605878433405   -5.22940747394455   -1.24453461050393
O           2.72763469173267   -4.50711703211295   -1.78080059686178
C           2.12949637692163   -6.49091554071206   -0.51186011114876
C           0.83044329356367   -7.05188253408010   -0.06701135797309
N           1.01624700479678   -8.21551877527604    0.59899099646154
C           2.31221611761805   -8.40375687512864    0.60843898094466
C           3.06851921831167   -7.36256167430703   -0.06786137373411
C          -0.57517949636357   -4.22573658893591   -1.52344081744832
C          -0.59272283629480   -3.02189766187341   -2.27700749627186
C           0.47305495237123   -2.52386314884630   -2.95291224452688
C           0.37326878593087   -1.43034616581267   -3.87623301418172
S           1.82633118320326   -0.45866222654778   -3.88878346992940
C           1.66913373379975    0.52990980584366   -5.33524849582470
C           2.74331262800631    1.11698614920769   -5.93278730584331
S           2.28980186420563    2.07119409580857   -7.28428888842780
C           0.63560200041950    1.66933550401676   -7.05661985012396
C           0.44980650659419    0.84925201546998   -5.98603072882714
S          -1.14168542802419    0.28310870669312   -5.50480389117047
C          -0.77612184374299   -1.21017193918877   -4.61516601669260
C          -1.78283703649740   -2.20408363420032   -4.67841168388682
C          -3.08352333092560   -2.05612048405796   -5.06902057270670
C          -3.96002527135852   -3.15277481967975   -4.93409317945778
N          -3.56893432722188   -4.26528136424891   -4.29943976060790
C          -4.63074305327726   -5.07526244306109   -4.28697532839336
C          -5.78271333492896   -4.47456793017444   -4.97689897931884
C          -6.95048929164845   -5.37692584301569   -4.90390587009234
O          -8.08194302010669   -5.17599870668087   -5.28149572324238
C          -6.40712341753812   -6.54977970450346   -4.19653751805942
C          -5.01199765114578   -6.30723750256788   -3.79546213320719
N          -4.52375346150478   -7.35392283372876   -3.09257003843572
C          -5.50728724718743   -8.23143494283414   -3.05935677754978
C          -6.70563026976245   -7.79421480183642   -3.72754315379522
C          -5.36762240800400   -3.23330891493005   -5.39151944335887
C          -6.04451621871678   -2.21706787681405   -6.11713201191995
C          -7.23642384341905   -2.38593734948418   -6.74650846579757
C          -7.82282110660287   -1.31442334233371   -7.46479061758992
C          -8.92792055168867   -1.40270146448938   -8.25847012933121
C          -9.58736060887521   -0.31176153758764   -8.95521455383714
C          -9.12802909046080    0.97006379833972   -9.10358368396384
C          -9.81651905314012    1.98206229471954   -9.80746958075059
N         -10.32057023626406    2.84993127643140  -10.36390307954657
C          -7.89881576439279    1.46176648609375   -8.61433964886894
N          -6.90968446217956    1.93298057473935   -8.27020177631842
C         -10.82618682130567   -0.83927783361210   -9.52128365663020
C         -10.89252209812676   -2.22108403898995   -9.27162020816302
C          -9.68945164742760   -2.65336554937890   -8.52461224297110
O          -9.38529543193787   -3.78611845135575   -8.23829126393010
C         -11.95436720384064   -2.98930219509930   -9.70277271689687
C         -12.98284654206673   -2.36299153875992  -10.39548132113095
C         -12.92816658747415   -0.98595572831017  -10.64486997034163
C         -11.85360282841179   -0.21703798757971  -10.21326047569308
Cl        -14.20708047811636   -0.22372611039371  -11.49942061582001
Cl        -14.32362276508920   -3.28114128962586  -10.94636848148179
H          -8.28365583504952   -4.97103342030594   -2.13516923563660
H          -6.16916917369098   -8.49670439962247    0.67504449441158
H          -3.23011927045258   -3.56742944604346   -1.83048946966975
H           2.73206700519390   -9.27110625121424    1.08744693697079
H           4.13540746197667   -7.33407330400365   -0.16827034600102
H          -1.53619426841297   -2.49614649419950   -2.32052976253637
H           1.45929702842698   -2.93838158066461   -2.78092224233801
H           3.77060081654592    1.03914936518845   -5.64018811486809
H          -0.11534066152124    2.06197308291003   -7.71143636111356
H          -1.50186886782658   -3.20830197198021   -4.38973887493219
H          -3.46398058993428   -1.10823990263890   -5.41909344112128
H          -5.37010904722445   -9.17544484170093   -2.56181126787849
H          -7.61272616709552   -8.35795391390759   -3.81761226013368
H          -5.54498216153620   -1.25855137286176   -6.19544060613212
H          -7.74560657764010   -3.33922944450522   -6.72035239614273
H          -7.34549918509718   -0.34839020776129   -7.35110934514750
H         -11.98146599930808   -4.04879234269585   -9.50247920167350
H         -11.84747698445544    0.83985805201581  -10.42348025478163
