120
 SCF done       -232.602599921152          0.000739011741
C           4.20554332441033   -5.67026826744796   -2.64472372726825
C           4.97394478823098   -4.85371181087948   -1.82031639148392
C           6.27853066540894   -5.14521852635502   -1.40000705749624
N           7.34526666529247   -5.32556464094216   -1.00779323279086
C           4.51882250805035   -3.62450491012591   -1.34795693305839
N           4.16488868565490   -2.58845687107590   -0.98287253220647
C           4.69460849846909   -6.91316777850550   -3.27609556887450
C           3.65411342796406   -7.46283486441069   -4.04481971682029
C           3.82003202439481   -8.62304344072175   -4.76389833254521
C           5.06063653900677   -9.25488011518654   -4.71528661767196
C           6.09573690559613   -8.71616053763782   -3.95834354679075
C           5.92263209149111   -7.53751789429835   -3.23196545792251
Cl          7.62580789582268   -9.50429204216725   -3.90712718242310
Cl          5.30441657582751  -10.71014217342688   -5.60336753983763
C           2.46642684184427   -6.58070488597374   -3.91542831100171
O           1.35131724441125   -6.73264336580071   -4.40761338935626
C           2.87881856062412   -5.50874552946185   -3.05580429706993
C           1.82537057427970   -4.50862410937943   -2.71205118278137
C           1.34665573024794   -4.44528087842851   -1.30295024241421
C           1.34227015069700   -3.08618490728947   -0.91837333765017
C           1.82917823309890   -2.36034246342644   -2.02431385153344
O           2.13623341292920   -3.13556479976271   -3.03150999058843
C           1.96073755998285   -0.92902574386427   -2.14825032779502
C           3.06337296036291   -0.31087683964078   -2.67347528546845
S           2.95910876805702    1.39041980151165   -2.58527185871574
C           1.40601812252258    1.30042305971886   -1.86721055245388
C           0.97967559876307    0.01608008054486   -1.69406137600899
C          -0.37799689541835   -0.30768167042705   -1.19194535712027
O          -0.93510546496985    0.37734512921635   -0.36182759989430
C          -0.99469026656621   -1.52689954733754   -1.77462225036093
C          -0.76589864259768   -1.91067795978904   -3.09524330448302
C          -1.30082926987738   -3.09351285605542   -3.57328142416502
C          -2.05630058517297   -3.90378138001850   -2.73990531089532
C          -2.31869711466199   -3.50731426671353   -1.43817755641451
C          -1.80467596214241   -2.31649026174133   -0.96154862210231
C           0.97242439852232   -2.73012864125303    0.38644368508139
C           0.57475863784729   -3.72283353348553    1.23603744294267
C           0.52336469449175   -5.08723330883758    0.84782650080832
C           0.94064113667654   -5.43560931684960   -0.45254260258052
C           0.05274016462792   -6.06993568200216    1.76690587730700
N          -0.15508942756348   -7.39012477941047    1.41077926246136
C          -0.62770200293278   -8.06481895023774    2.48632496273737
C          -1.06991342864528   -9.30851467550322    2.93074085839418
C          -1.41269833203996   -9.13657226080295    4.27367112944250
N          -1.18699210214879   -7.82858896251472    4.64550928796602
C          -0.71018548339098   -7.14883632986709    3.56866324195035
C          -0.29090333846788   -5.90624836663871    3.12090988460465
C          -1.93611867137099  -10.07387933099105    5.21431499648615
C          -2.24612037967555  -11.35235400385495    4.93361975448835
C          -2.77931231235706  -12.28639891247827    5.90395462454930
C          -3.69077197393646  -13.29591756416088    5.52642628974186
C          -4.22822503216996  -13.34908081562680    4.14807628162425
O          -4.25694284715676  -12.40368132467018    3.39271991215600
C          -4.79726963800315  -14.67392161816099    3.75132010892962
C          -6.11578862703109  -14.93243085273088    3.57437113689775
S          -6.40610576889526  -16.57955161464045    3.15215517210987
C          -4.73283875242030  -16.92085427387172    3.17962366221397
C          -3.97867395354704  -15.82250907680461    3.49932285399512
C          -2.51460271055643  -15.73801732400680    3.59798230681648
O          -1.97275681605513  -14.72684886559444    4.00532735460233
C          -1.73685644599206  -16.93806068948032    3.20137448812116
C          -0.70621769862465  -17.36597204011026    4.03420912769998
C           0.04430048573282  -18.47661343318969    3.69712391404827
C          -0.20902495447037  -19.15111000722167    2.51373162422308
C          -1.20959131442714  -18.70784166691956    1.66391183282354
C          -1.97633961838533  -17.60830073078798    2.00470691061691
C          -4.11561251144825  -14.22526708533906    6.47587603248016
C          -3.70096550388547  -14.15509380619567    7.78669556578428
C          -2.82708788915527  -13.13887103207014    8.18863310965218
C          -2.35187944253659  -12.24575926489874    7.22742604680163
C          -2.33802998087913  -13.00785752703902    9.54203241984167
C          -3.00389517122089  -13.24413577467470   10.69890105882108
C          -2.43249732259613  -13.15767066872002   12.04007302219988
C          -1.11119357452347  -13.00231579295134   12.36267397209536
C          -0.62237169158529  -12.93882027357726   13.68627036036400
N          -0.15791413962811  -12.87622404919911   14.73344524403696
C          -0.04332148889148  -12.88438080477671   11.44658283870914
N           0.88453025979958  -12.78359918622881   10.77771235484285
C          -3.52192122732782  -13.31145300500125   12.99599742551374
C          -4.72589088000459  -13.49317106042595   12.29388143201774
C          -4.47283504006522  -13.46512248306514   10.83908334013071
O          -5.30828223472590  -13.54268647979521    9.96856817230456
C          -5.93187440984557  -13.66510739639696   12.94348079254775
C          -5.93921822314783  -13.66219568099917   14.33187430692378
C          -4.74458502893378  -13.48166499708502   15.04163890665776
C          -3.53382165903154  -13.30455338797321   14.38325985913538
Cl         -4.76757073168666  -13.47609881635332   16.75791952924460
Cl         -7.41548424322958  -13.88107747359941   15.17875941280717
H           3.01470014830269   -9.03217437948734   -5.35287743397850
H           6.74794128436823   -7.14780475428758   -2.65871317346260
H           0.98713519251971   -4.78970391646630   -3.38343790197579
H           3.94977928329421   -0.78944115445087   -3.03867717976190
H           0.85996476347380    2.19234260113817   -1.63062383367146
H          -0.19181942766523   -1.27527837603081   -3.75414980795709
H          -1.12423223946860   -3.38777886318946   -4.59701203821367
H          -2.44862714187250   -4.83807801163587   -3.11181928014359
H          -2.92486890586968   -4.12718701546139   -0.79484076339902
H          -2.00035782029607   -1.99133782003054    0.04902868446906
H           1.00763828117076   -1.70082129015040    0.70549297352285
H           0.28132088249814   -3.46444547255024    2.23979952376374
H           0.96273298014284   -6.46050249755425   -0.78813965857610
H          -0.00855260435599   -7.77011817563335    0.49228521319216
H          -1.14687359245107  -10.22065626745056    2.37661849880126
H          -1.35930551228869   -7.45801971208716    5.56424037818869
H          -0.22198484414090   -5.00057483093166    3.68780822616037
H          -2.12315154130517   -9.68133380154554    6.20711170788989
H          -2.11825096482341  -11.72642931300655    3.93036269178233
H          -6.94100098439095  -14.25898337139406    3.69251922125094
H          -4.39360630916996  -17.91642072752050    2.97267953196848
H          -0.51343012212592  -16.82346209927391    4.94790944590502
H           0.83295169329461  -18.81199254586702    4.35371274955290
H           0.38058339843217  -20.01542300184715    2.24730977890752
H          -1.39225430111327  -19.21978381036713    0.73085435925670
H          -2.73526880774773  -17.24650759555092    1.32657339111486
H          -4.80010714799706  -15.00831221340966    6.18522655543953
H          -4.02779094316096  -14.89918177382561    8.49337506413357
H          -1.62720325948846  -11.49985018515886    7.52010576858845
H          -1.32086995992548  -12.64109519703734    9.61105859505790
H          -6.84258868244836  -13.80104330679166   12.38176675232658
H          -2.63740870032010  -13.16472885452009   14.96447413910284
