122
 SCF done       -212.718985062038          0.000951846723
C           5.00036334192205   -7.42040688243419   -3.04360635244714
C           4.73121594828198   -8.75749832778694   -2.93776649584173
C           5.06984637260644   -9.70657454429867   -3.92494914302897
N           5.30884236370336  -10.51036611646292   -4.70810828565706
C           4.17524317996403   -9.35477014908172   -1.78657485162084
N           3.79553454532792   -9.90856851202770   -0.85632213120378
C           5.83114062669326   -6.80150236558609   -4.07298041171001
C           6.27802485802389   -5.55116225289501   -3.60650784108334
C           7.12042282985528   -4.75769065101569   -4.35874059913934
C           7.51851680924388   -5.21680675891211   -5.60807619865796
C           7.06832771727910   -6.45449776330800   -6.08336878725642
C           6.22670404589193   -7.25568259025760   -5.32016364136303
Cl          7.55899621213235   -7.00166665905538   -7.63492901361679
Cl          8.56709105667117   -4.25873921625197   -6.57275635590701
C           5.69798970576477   -5.28344367010525   -2.27165537271976
O           5.90119612052793   -4.33678431647387   -1.54929837746258
C           4.75591823225203   -6.41032831298153   -2.02910506833265
C           3.82508410617554   -6.31832177068723   -1.04870295622094
C           2.62587116578152   -7.09512156389433   -0.87893071979473
C           2.14751697856486   -7.34619646525241    0.41616421008982
C           1.01080899537126   -8.09716630769373    0.57812986449427
C           0.29264085043051   -8.55867563807722   -0.53981372643431
C           0.73239560754371   -8.27500081717841   -1.82573803775884
C           1.90113185153330   -7.56154344455680   -1.98542804968935
C          -0.86461856148571   -9.29140541167818   -0.07368129290432
C          -0.84973661651875   -9.29599634439126    1.33170539901704
C           0.34794849177316   -8.54418302354274    1.85846646918354
C           1.27579970402501   -9.47338293063055    2.66559034139168
C           1.73167194083369  -10.69294142485745    1.87379751083804
C          -0.07557051570750   -7.34772551130113    2.73037132151687
C          -1.00099087626894   -6.38164356598048    2.00018828551216
C          -1.83773618213449   -9.93803148793420    2.03670692133269
C          -2.85729094946329  -10.59627748584882    1.33963200479276
C          -2.88641914648688  -10.55193737349886   -0.05756891110693
C          -1.89265210655517   -9.91020581090362   -0.76921441713164
C          -3.90793600430558  -11.27129420053467    2.07569616620862
S          -4.60406770360279  -10.49343292112479    3.45140673377704
C          -5.74694568320292  -11.75964917178450    3.71644898662457
C          -5.60446916442535  -12.75636465188034    2.75367800645882
C          -4.52988314245149  -12.48828267365809    1.83642121705894
C          -4.19099555024508  -13.48955784747406    0.87711316903859
C          -3.02005650642953  -13.41787196418240    0.09230268304846
N          -2.05664509489504  -13.45002921136213   -0.53047778554206
C          -4.97928958829919  -14.61148615448616    0.76221875064441
C          -6.11403554575095  -14.78858006211359    1.57362280220252
C          -6.41658952761622  -13.89741080093361    2.56205251819945
C          -6.65324919017916  -11.68619100474770    4.83969974889480
C          -7.01011512831788  -12.84222240419510    5.54841921034777
C          -7.86899028232670  -12.73678914317891    6.61526713781145
C          -8.37904634723907  -11.48681045280988    7.00669627100871
C          -8.01022833238748  -10.33435121241712    6.32644190996785
C          -7.15061995780389  -10.44384668013169    5.25358965223041
C          -9.24180267108947  -11.67938040069416    8.15021140973092
C          -9.26471994256153  -13.05149082412108    8.46697888409775
C          -8.38783141001452  -13.83233565790385    7.51621959775529
C          -9.20301012897632  -14.87011143692479    6.72186934074753
C         -10.35959872244123  -14.24819963874882    5.94822358543945
C          -7.24018537978205  -14.53816467078079    8.26305426875799
C          -6.37907500874157  -13.57614575890555    9.07248584665999
C         -10.00350413802263  -13.50623756035922    9.52721253562154
C         -10.77559311569071  -12.59769980088876   10.27775196621578
C         -10.72024707727594  -11.23059079796770    9.96712443502081
C          -9.95780126833130  -10.76856856985742    8.91515510769363
C         -11.53156832143406  -13.11532249661662   11.38184001830101
C         -12.68949284123205  -12.64714871286662   11.92432139651586
C         -13.32148642159726  -13.18324391509635   13.12136659022747
C         -12.74576210083305  -14.00787405526032   14.05034645966130
C         -13.40535743979207  -14.47742707311840   15.20690672214954
N         -13.88545623482125  -14.89648937882541   16.16127791511869
C         -11.41823005842602  -14.48710287983986   14.01069538512936
N         -10.35190048619121  -14.90984186491986   14.06417205598490
C         -14.66330425781040  -12.61713003982498   13.20867170796063
C         -14.84845938798018  -11.72511193100393   12.13957211384733
C         -13.63110196327540  -11.68040134993402   11.29969478591531
O         -13.49412410733905  -11.03562821448411   10.28510189378358
C         -16.02845749738439  -11.03126198065406   11.96432794072229
C         -17.05127535525591  -11.22904260193406   12.88277156174633
C         -16.87749728728939  -12.11826213843439   13.95018280074011
C         -15.68781615237531  -12.81681276018627   14.12077611802367
Cl        -18.15288819061360  -12.35916849408595   15.07443674331858
Cl        -18.53248010411822  -10.37932871478383   12.70615742665285
H           7.46095339290154   -3.80581035102865   -3.98298344400198
H           5.89523981955981   -8.20205457571947   -5.71583616397390
H           3.98296021261639   -5.51344233747036   -0.33695467270209
H           2.70607622646519   -6.98291105259701    1.26603157088198
H           0.17505484512207   -8.61171675926741   -2.68647302561602
H           2.24798753412663   -7.31697553917814   -2.97953363150937
H           0.74259783382373   -9.79741549857124    3.56246376922879
H           2.14903272938350   -8.90081186601898    2.98488791987190
H           0.87842829796930  -11.28390031665560    1.54776129058756
H           2.36528069439609  -11.32064340800109    2.49591907603778
H           2.30040433624571  -10.39665949190492    0.99678426406367
H           0.82129477857047   -6.81638770309880    3.05490780445002
H          -0.57934882547274   -7.72671357158632    3.62190930970346
H          -0.51445516161675   -5.97662443889741    1.11555086384038
H          -1.26991488576243   -5.55505235364801    2.65379081822177
H          -1.91365388355010   -6.88505293156307    1.68868555274984
H          -1.83294351976990   -9.96048766057792    3.11728556368912
H          -3.71151648344497  -11.00838774722670   -0.58360575870738
H          -1.92351968353870   -9.89039512906564   -1.84741150315641
H          -4.71990465126349  -15.36707527241379    0.03541746658069
H          -6.73501346946130  -15.65730629342249    1.41656931410544
H          -7.28353654905817  -14.04265607007275    3.18721564498076
H          -6.57855421266593  -13.79353868750064    5.27747303460336
H          -8.38911182453969   -9.36967896794570    6.62753756482370
H          -6.85755658196806   -9.55962644962337    4.70592984479531
H          -9.59190052110971  -15.61613609440704    7.41779177974800
H          -8.53317386676111  -15.38137528658978    6.02689966792948
H         -11.05477583895130  -13.75540926499903    6.62424156658512
H         -10.89974254604605  -15.01731025314195    5.40101129565199
H          -9.99567011469492  -13.51033970045271    5.23628313869413
H          -6.61549452728471  -15.05693907404494    7.53284713928476
H          -7.66779490416683  -15.28956483522096    8.92969154626277
H          -5.92391552916151  -12.82873003292792    8.42618259377302
H          -5.58645972311141  -14.12195386760531    9.57847503832753
H          -6.97576638781983  -13.06328779566309    9.82349020721424
H         -10.02425962543123  -14.55596292552211    9.78305485523346
H         -11.25554230169576  -10.52705287603519   10.58183306229930
H          -9.91861293620310   -9.71303173394698    8.69411542872793
H         -11.12365261010557  -14.02508187505592   11.80809714850877
H         -16.14780164109765  -10.35154296759649   11.13541214604269
H         -15.59306678206464  -13.49657719726630   14.95148183120537
