117
 SCF done       -232.489366255180          0.000908417652
C          -1.24055969346375   -7.47592772007569   -0.50764138805523
C          -1.63668611533269   -6.92264790594095    0.67890945271243
C          -1.82878639179216   -7.64969181759869    1.87263724194857
N          -1.94728570538110   -8.15479731222412    2.89692775130057
C          -1.92206769837437   -5.55816069749597    0.89856635936071
N          -2.22781388352999   -4.48833102395258    1.17968754344095
C          -1.21559439716949   -8.91005073268684   -0.78569412823095
C          -1.08544279533656   -9.10928433979002   -2.17205024086853
C          -1.07479031692705  -10.37403689924490   -2.72495161284172
C          -1.20341752188312  -11.46732717961899   -1.87667474489479
C          -1.34091516923047  -11.27454395416730   -0.49781154092221
C          -1.34041913936418  -10.00265605840333    0.05961932052691
Cl         -1.51967530380103  -12.63602978676990    0.53712806856447
Cl         -1.17430449142299  -13.05961718445517   -2.51887261846874
C          -0.94025888722517   -7.79909692945715   -2.85174891696840
O          -0.80238231310389   -7.59397643559096   -4.03185532654393
C          -0.90834543615822   -6.79588968717058   -1.75189415345664
C          -0.43550980772836   -5.54576012923906   -1.98241882010817
C           0.00836249161085   -4.64537283928481   -0.93201159678314
C          -0.37708063654764   -3.29319980635989   -0.89603453766119
C          -1.30649031301805   -2.87978760422790   -1.95860604604762
O          -1.93654390587798   -3.72769541273925   -2.57038917499813
C          -1.39952907219937   -1.45011298155284   -2.28647687544584
C          -0.34201926081071   -0.58183841518060   -2.24851559848905
S          -0.73991774787180    0.96618251234629   -2.86101515524060
C          -2.34706528149865    0.45890308362759   -3.19172135741980
C          -2.56891689955393   -0.83641087254974   -2.84165655227790
C          -3.88282295535221   -1.51214371667153   -3.02120602608335
O          -4.53139800373871   -1.36594671167147   -4.03335873976046
C          -4.33634030343198   -2.33582083704349   -1.87944136659990
C          -5.17988138348392   -3.41571615679276   -2.12914799871113
C          -5.62299202080058   -4.20482956417771   -1.08567157546425
C          -5.25166574616346   -3.90627309856319    0.21540975672164
C          -4.43447250983737   -2.81714066775721    0.47372882901358
C          -3.96839133515737   -2.03925560227660   -0.56838096874677
C          -0.00408156150114   -2.50698333281946    0.19332597064604
C           0.67194989699532   -3.05236275753053    1.26392200760878
C           1.04143254344153   -4.40345066466163    1.24905873205926
C           0.77583516238518   -5.15145115653595    0.09956687518492
C           1.49395331641598   -5.11101484916744    2.41414994371629
S           1.72135629235557   -6.84600612902784    2.30850238741402
C           1.81814714363213   -7.06584728077835    4.02520639847352
C           1.74278661035120   -5.83439360278915    4.65249148805524
C           1.55907405662297   -4.74578255445142    3.73840755789852
S           1.37624251020585   -3.27320672796762    4.63461838825679
C           1.55999788177932   -4.22346346223581    6.10480070519619
N           1.73330060223608   -5.47821876370988    5.96496026367786
C           1.70533482720538   -8.39644253277702    4.50542940607133
C           1.55964738605169   -8.77004443255752    5.79023887151562
C           1.06785201568174  -10.10556085905517    6.08333729574640
C           0.12082462201912  -10.33248587207049    7.09642453681547
C          -0.39232102669517   -9.24727976327506    7.98626304921315
O          -0.49522357471158   -9.41026593046639    9.18374453502465
C          -0.81906386426860   -8.00812490615428    7.31529240752294
C          -1.19824086776205   -7.92743258799665    6.00049715985899
S          -1.71021618821859   -6.36191558949820    5.55565621395050
C          -1.45813921860260   -5.78963169761239    7.15964360098742
C          -0.98508888526269   -6.75467090236576    7.99140851660239
C          -0.71033120772986   -6.51676864678466    9.43708185215811
O          -1.53040332884565   -5.99128390741461   10.15565241111441
C           0.62794308873511   -6.93936116736527    9.90720379384745
C           0.77769833768330   -7.38631016367532   11.21729654309174
C           2.01631623196734   -7.79744823603719   11.67006494243743
C           3.11564808117290   -7.74498176418250   10.82772300900257
C           2.97702485642542   -7.27025150880689    9.53319921905499
C           1.73772384399715   -6.87061666822707    9.06865833790091
C          -0.39025669073390  -11.61501384256342    7.28441614972074
C          -0.07218594989884  -12.64110571771426    6.41998768453074
C           0.81148917630735  -12.41224711876658    5.35540204199809
C           1.43208378772591  -11.16889249893562    5.26312781276936
C           1.03779244142661  -13.46015016217340    4.38845148327624
C           1.29766325194626  -13.31668113951348    3.06335253846870
C           1.57105344679353  -14.41149736008666    2.13133395571639
C           1.69059256004448  -15.73934428310750    2.43112604940715
C           1.96657785113573  -16.74379249650334    1.47524366035853
N           2.19046407610091  -17.60880284477476    0.75601652176745
C           1.56690792360667  -16.32123547731286    3.71294408961372
N           1.48906159661869  -16.88312961352343    4.71074175284699
C           1.73887107182545  -13.83442429875278    0.80083440660163
C           1.58454084813743  -12.44164355493657    0.88766828945726
C           1.23509539384803  -12.05745920147119    2.26674081789699
O           0.88523317630964  -10.95087434792548    2.61508314837524
C           1.71377882328739  -11.61802221910587   -0.21319098346249
C           1.98624125742770  -12.20123493419161   -1.44178728846594
C           2.11460716380427  -13.59243173464070   -1.54711458858717
C           1.99900974198475  -14.41465884133916   -0.43170395680595
Cl          2.41695834115964  -14.30162919712662   -3.07865657471505
Cl          2.14424442368983  -11.20938088660808   -2.83406083208018
H          -0.97286967267594  -10.50730378019027   -3.79038290149100
H          -1.41865307716274   -9.89692548252594    1.12933381080088
H          -0.25487488367219   -5.28371873964476   -3.01812885820713
H           0.66428005103817   -0.78592618757906   -1.93893707375151
H          -3.05366257607723    1.14610379536107   -3.61270844905371
H          -5.46066413136618   -3.62738929379381   -3.14964612544574
H          -6.26398401787089   -5.05105884850032   -1.28525546683037
H          -5.60028467422908   -4.52035799700817    1.03266837584515
H          -4.15533105165553   -2.58088956776567    1.48836105854364
H          -3.34075683040897   -1.18391068123714   -0.36073183284442
H          -0.31891984839466   -1.47606360220197    0.23755954581039
H           0.87708173401906   -2.44991449574707    2.13494372385408
H           1.11182230933922   -6.17715669703292    0.04498014526517
H           1.52203466892613   -3.73410957731101    7.05851151082423
H           1.56015711067196   -9.13028571692088    3.72388280395516
H           1.67850192248572   -8.06139772669102    6.59335430759071
H          -1.23551936677891   -8.70764519089440    5.26631385751904
H          -1.66184619033236   -4.76609687949611    7.40434219839463
H          -0.09170834154327   -7.42421187614187   11.85523666382810
H           2.12795703601024   -8.15973635273233   12.68114685639702
H           4.08361004655648   -8.06852404578839   11.18184574670420
H           3.83728671853434   -7.21258264273200    8.88179575211712
H           1.63628279221646   -6.46951334514611    8.06975137754912
H          -1.07826889051422  -11.77974524906795    8.10017833000663
H          -0.52754171658507  -13.61280071740114    6.53837089619405
H           2.22526050150360  -11.02602397952560    4.54863911654282
H           0.93519390023974  -14.46467629880832    4.77962561986373
H           1.60431025162151  -10.54940698702990   -0.11635638413162
H           2.10542272070254  -15.47966718977268   -0.55521433648397
