133
 SCF done       -225.205120591038          0.000880821866
C          -2.18440435658325   -0.50658089346667   -0.71679358982968
C          -2.94819323170237   -1.33427760182295   -1.49564035612289
C          -4.31467627359147   -1.12307480754332   -1.76842269426716
N          -5.43663735724104   -1.01822939529336   -1.98728334138885
C          -2.43310354765889   -2.46210785562757   -2.16737726237510
N          -2.06030748599467   -3.35697628037527   -2.78139242702309
C          -2.58224066842855    0.81688105838629   -0.24378126213075
C          -1.42517344545168    1.54832298741738    0.08165133323677
C          -1.49539751008719    2.85428348071170    0.52153582222549
C          -2.74873348112886    3.44033013797505    0.65091089687216
C          -3.90438684989998    2.71455912420915    0.33981504294048
C          -3.83030317401782    1.40229675351998   -0.11376633259795
Cl         -5.44647333614204    3.44861303581937    0.51918186150564
Cl         -2.87697694139544    5.06319082666027    1.19761084419380
C          -0.23022068725768    0.69531219714849   -0.11067419121541
O           0.93033180924154    1.00468627618466    0.01940496149200
C          -0.76870360511778   -0.65216712459010   -0.44089149486494
C           0.04135550827596   -1.73850745756625   -0.34534965263570
C          -0.30370455247082   -3.12621051116317   -0.23154517578364
C          -1.53191138349074   -3.54047986352766    0.31486153457006
C          -1.79592100385820   -4.87837001922535    0.44226002893400
C          -0.85172154585074   -5.83974379512775    0.03321931446389
C           0.36880674308638   -5.44279533270763   -0.49790873644532
C           0.63808948387914   -4.09574474580237   -0.60969898144509
C          -1.38842986811571   -7.15277961422328    0.30494409992915
C          -2.66723540734595   -7.00659904400710    0.87173963895604
C          -3.02944933340077   -5.54603471076023    1.00160554214361
C          -3.26401391736957   -5.15170754407497    2.47166448133254
C          -2.06672227438933   -5.45492492080786    3.36445379306346
C          -4.27714968452522   -5.20109243471753    0.16560003583535
C          -4.16396485542593   -5.65159377008776   -1.28559747169537
C          -3.40703912044724   -8.10498857408076    1.23162423687118
C          -2.87288728058756   -9.38905047623196    1.04047850581065
C          -1.59151875989466   -9.51893877418537    0.48727350614676
C          -0.84956783972001   -8.41829907818575    0.11512685241869
C          -3.62651373204206  -10.55784316687119    1.41792655490698
S          -2.81522313406297  -12.10086580872483    1.61479851868105
C          -4.29925235542040  -12.84179649364076    2.04531066189162
C          -5.36584016988506  -11.94955617834744    2.02315192632736
C          -4.97985605844008  -10.65844552520072    1.67419342366347
C          -6.65481104713327  -12.64548631348194    2.39535529342871
C          -7.27036129199268  -12.04300244250998    3.66102277092469
C          -7.65674803831444  -12.61340629106011    1.23781415851515
C          -6.14771281282933  -14.04778718317596    2.64481362785549
C          -4.77298094731419  -14.11945736357735    2.42919400138385
S          -4.14558795858416  -15.68583872951733    2.72227155114074
C          -5.74900979008725  -16.26549688911754    3.14222774834873
C          -6.69697885915201  -15.26020863415922    3.04278630446289
C          -5.88983663309499  -17.62215609031668    3.54630319609388
C          -7.05950489101078  -18.22876101391783    3.83944439555970
C          -7.22649213834507  -19.58623717749746    4.29579084729964
C          -8.53085995840808  -20.10014616227665    4.39479118897776
C          -8.74021967812506  -21.37406372680531    4.86406236873224
C          -7.64077664250298  -22.18256823944627    5.20619793767752
C          -6.34419713045668  -21.69334373370731    5.10545788889981
C          -6.14745301328028  -20.40429997381476    4.66206658136908
C          -8.12602094084708  -23.47322853441909    5.62615660633658
C          -9.53270994809457  -23.47444352059055    5.54086191360956
C         -10.03954922704495  -22.13812984623565    5.03359465539292
C         -10.95611168513241  -21.53862925567972    6.12049472430223
C         -11.52998426865246  -20.15727927193837    5.83312811352504
C         -10.70193537628158  -22.24770680248206    3.64351685464927
C         -11.99146576550028  -23.05535633060365    3.57512115724732
C         -10.23847337569748  -24.57670576552941    5.94687878681696
C          -9.55693394485143  -25.70760198898383    6.44273034955809
C          -8.15351890550101  -25.70816486362250    6.46397944778786
C          -7.44010089090164  -24.60006302675551    6.06326536858998
C         -10.35099428179508  -26.82847168926257    6.84706293860149
C         -10.08704432982527  -27.80397681047952    7.76266931046011
C         -10.95367509436695  -28.94546159155807    8.01289452768846
C         -11.94567834980627  -29.41376375898794    7.19262333484006
C         -12.73871543460102  -30.54543156769191    7.47931584745767
N         -13.42055948689664  -31.45167446300427    7.65474199263665
C         -12.29978597013739  -28.86558496167065    5.94080805814705
N         -12.63989452124479  -28.49608388695005    4.90814353848066
C         -10.52401945484582  -29.56765267580805    9.26057912502060
C          -9.39075408617913  -28.88804471791830    9.73581516285797
C          -9.04125985181609  -27.78038504631849    8.81703510554557
O          -8.12686513883871  -27.00186902993174    8.96602273343884
C          -8.75781921317792  -29.25585641673220   10.90538822985527
C          -9.26878788481814  -30.33150580969784   11.62045641196109
C         -10.40043950370883  -31.01202365134955   11.15718739198685
C         -11.03455426730218  -30.63778907851817    9.97806351618102
Cl        -11.02812075588396  -32.33364860859098   12.05676859167410
Cl         -8.50829306107413  -30.82443208038219   13.07893114347017
H          -0.59847225543898    3.40461470050903    0.75771219777690
H          -4.73919437671159    0.86981102478627   -0.34304602349219
H           1.09976336050473   -1.50570940808712   -0.27224200313255
H          -2.23585870481629   -2.80309028978933    0.67267817488251
H           1.09806224035146   -6.17486929914380   -0.80948992057073
H           1.58088516153462   -3.76768677244548   -1.02199348602120
H          -4.13714628255343   -5.69219787677248    2.84283829934406
H          -3.49055088454977   -4.08417495316111    2.51609656637731
H          -1.83627097159734   -6.51784871239168    3.34899627143752
H          -2.28189535945842   -5.16418662606488    4.39001000291725
H          -1.18748788308293   -4.90899057141076    3.02945701805640
H          -4.43406438206577   -4.12037572117799    0.19971905543481
H          -5.14686888313395   -5.67588052698485    0.62534149080726
H          -3.30056335224537   -5.19883949120069   -1.76777578460443
H          -5.05444518932811   -5.35630045163416   -1.83552887499238
H          -4.06335483230035   -6.73290277273353   -1.34599400993216
H          -4.38279719845597   -7.98752273477571    1.67673747229663
H          -1.18637417208803  -10.51041708462547    0.34480309219139
H           0.13229769184650   -8.54190868689028   -0.31568984327293
H          -5.65689969655741   -9.82818276663418    1.58828558279134
H          -7.56024124649000  -11.01060072465512    3.48108370916300
H          -6.55282122540085  -12.06682211669784    4.47823126548379
H          -8.15141331753637  -12.60852690579309    3.95439738568507
H          -7.94733102793612  -11.58801826633233    1.02253558307341
H          -8.54571075783813  -13.18336273821929    1.49675477364975
H          -7.21384839299331  -13.04520079625573    0.34309663467460
H          -7.73694807398552  -15.41499124567690    3.26441598738151
H          -4.96293290129615  -18.17507970444294    3.60825036065087
H          -7.97653598430233  -17.66543306404359    3.72673932029527
H          -9.35598520202040  -19.47698240172522    4.08386468474461
H          -5.50272172171070  -22.31450535868892    5.37323918908249
H          -5.14197311344796  -20.01874290983810    4.60094001317126
H         -10.37829670219318  -21.49366267040535    7.04782649160271
H         -11.77943437506176  -22.23519977748272    6.28687469487469
H         -10.74518845006746  -19.40727544384302    5.80147977834880
H         -12.22054284523106  -19.88430269582448    6.62864305882404
H         -12.07617101548399  -20.14096850241538    4.89382796296658
H          -9.96963206587096  -22.69692922203312    2.96703113525350
H         -10.89509742072398  -21.23606031975072    3.28259645150538
H         -11.81007044321567  -24.10219845242523    3.79987691436380
H         -12.39682261511591  -22.99723959699755    2.56711549552833
H         -12.74078944155515  -22.66921674481346    4.26083811035050
H         -11.31797700706941  -24.58935095420417    5.93332504676451
H          -7.62823700273824  -26.59304256003621    6.77993139357558
H          -6.36138140811504  -24.60689682700441    6.09421867683431
H         -11.32506037989968  -26.86838390436495    6.37165781486348
H          -7.88816122429260  -28.72001934875124   11.25143011924052
H         -11.90706213865989  -31.18158679018426    9.65544742334822
