130
 SCF done       -237.611812743006          0.000194219002
C           7.92059391975915   -6.67408833524245    8.76650613904536
C           7.06615831959084   -6.61366881683698    9.83744582041207
C           5.81271894490361   -5.97221206998939    9.80777320168571
N           4.77609339165848   -5.47941731073350    9.82765550599295
C           7.40785947976153   -7.09400071626566   11.11885786006490
N           7.67963731200769   -7.41448099655225   12.18712453465181
C           7.78371748612714   -5.89888746684460    7.53494039653710
C           9.04912063188425   -5.78943270119502    6.92996668276093
C           9.23429995176061   -5.06645809878762    5.76973391830505
C           8.12971191297710   -4.44987684528254    5.19387989166941
C           6.86689201826374   -4.56635895553001    5.78338115535861
C           6.68476385661538   -5.28585063058012    6.95974799957735
Cl          5.50955384946581   -3.81146615968755    5.04997242102191
Cl          8.32078178354161   -3.54203450472696    3.74762223428332
C          10.04194098812602   -6.55835879453250    7.71751143284029
O          11.23194129270794   -6.65112234537827    7.52095418257263
C           9.24771381732961   -7.24435509197913    8.76530356616523
C           9.79025009556019   -8.29710890339703    9.44727171370947
C           9.14655817887523   -9.35331357405419   10.11862455785027
S           7.46782132661974   -9.77352868499148    9.87805560014145
C           7.60415389448568  -11.14281037478802   10.93139945278936
C           8.89426218970262  -11.25802475222952   11.43075575549548
C           9.75153543386881  -10.27640613214546   10.96222877454036
C           6.49121975268107  -11.98062064980357   11.18033145530573
C           6.42602367785888  -13.10957970520664   11.97830754495678
C           5.16933385739989  -13.70330878439448   11.99682202687613
C           4.23713955153193  -13.04606890470901   11.21190821973046
S           4.94596382575879  -11.65832727523802   10.44520876866649
C           2.88002614829624  -13.39128908580702   10.98652602561317
S           1.87223615741107  -12.43223002247587    9.94413214350003
C           0.51751118530535  -13.49891665724519   10.17867599765239
C           0.85760692749405  -14.52897355307371   11.03619707782912
C           2.17260809134456  -14.46907265471220   11.48769119616003
C          -0.69670296564962  -13.22670462966376    9.48861255616567
C          -1.78064540905614  -14.03302943148437    9.47285783496246
C          -2.98879368846828  -13.80940133475118    8.72345362722703
C          -3.88577827085717  -14.84538247531231    8.58080940751245
C          -5.03232131986105  -14.69541070471989    7.77531092709291
C          -6.02920197114911  -15.59258284103486    7.42409713416242
C          -6.15159448206107  -17.00720943615589    7.88572697274954
C          -7.48666658216930  -17.25723916801039    8.61085071860603
N          -7.33871073530533  -18.37835956848231    9.51933268354020
C          -5.93683044753872  -17.98406012031272    6.71582520607954
N          -5.82149832490398  -19.35335829443318    7.19742582100972
C          -6.91341084545115  -14.89819281971478    6.51648046337733
C          -8.00207253621858  -15.29870165478899    5.83381851784187
C          -8.70739074211442  -14.40198335664953    4.87889630190741
C          -8.18816465889406  -12.99471994235621    4.83965979354728
C          -7.10674894039404  -12.60456317094776    5.53573665687638
C          -6.41449561412835  -13.52165199591158    6.36273134254634
C          -5.27187632205147  -13.41316653314564    7.12399606593302
C          -4.36551858788195  -12.34670840461436    7.33545359931121
C          -3.26472868253692  -12.54430479971968    8.09956154961415
C         -10.20027700931349  -14.37794335613299    5.06851062591939
C         -10.83078842086699  -14.73749643849958    6.18925720239489
C         -12.25539668422671  -14.70509442825720    6.36099152272126
S         -12.95714631682062  -15.31897030108709    7.82720850249027
C         -14.56618694433802  -14.98084713805256    7.26288392780844
C         -14.52953778990159  -14.41482559570577    6.00487448118745
C         -13.23724285370068  -14.26293865119202    5.50262489273723
C         -15.71665525459509  -15.28828852370679    8.03978171864268
C         -17.04054721152508  -15.10726348774358    7.68698533626440
C         -17.93664728481336  -15.52755306071410    8.66491797716317
C         -17.32275556373096  -16.03818556841574    9.79126013967903
S         -15.58884338444998  -15.99067308386972    9.62412389999324
C         -17.94015690317828  -16.55368285843795   10.95692795008925
S         -19.66849918077051  -16.64393308277242   11.08048120628827
C         -19.56066302064553  -17.33794615965141   12.67973309606149
C         -18.23267393864841  -17.47343086210703   13.06150232791574
C         -17.32968343820130  -17.03938381047625   12.10275825936710
C         -20.70471253910315  -17.69327587839836   13.41877366202337
C         -21.98654978365217  -17.55564321398852   12.97034598703292
C         -23.09436798858838  -17.93491991044306   13.74668924390763
C         -24.40403913710806  -17.84048615073053   13.34633433287372
C         -25.57298200439164  -18.22096001100396   14.11003683329470
C         -25.60713314089625  -18.73057870586460   15.38360501645692
C         -26.79151167214035  -19.07847826372072   16.06634009857691
N         -27.71290088208464  -19.38235893499949   16.68023162425292
C         -24.48541591426581  -18.98222054247554   16.20034592569357
N         -23.63027744382479  -19.21677488131252   16.93076722440370
C         -26.74767275288617  -17.96242528874419   13.27727059171432
C         -26.32476695067863  -17.43521927013463   12.04560700535452
C         -24.84812989143316  -17.33096581366218   12.03004155532517
O         -24.17081433403057  -16.91327671813904   11.11423971042653
C         -27.21894890523024  -17.09442742825015   11.05221245932308
C         -28.57405833320465  -17.28452873039850   11.29208206654552
C         -29.00528274111943  -17.80875343421249   12.51479795891347
C         -28.09969042598544  -18.15045461702680   13.51347757167077
Cl        -30.68376905634802  -18.04007906130861   12.79956632944778
Cl        -29.72051565085470  -16.87398661876992   10.08070591181306
H          10.21211113778675   -4.98197319127392    5.32264508292137
H           5.69887394535373   -5.35990774200237    7.38941654864121
H          10.87097304254000   -8.38014159119549    9.37921401034884
H           9.18838622784169  -12.03763739610204   12.10894506737044
H          10.78837837549016  -10.20234467700091   11.23840381358405
H           7.26934149510023  -13.48513686721656   12.52856477270832
H           4.93688086879147  -14.58683797567423   12.56252662185361
H           0.16818912572423  -15.30004089674985   11.32829202102488
H           2.60534729739174  -15.18939592515745   12.15818695131552
H          -0.69323298676268  -12.31133754541294    8.91392751293236
H          -1.74310614236034  -14.96421654566799   10.02320081748098
H          -3.69187997778690  -15.79277074030449    9.06402584522907
H          -5.36635680353749  -17.19755529151481    8.62407319398825
H          -8.28756698368829  -17.40206292600856    7.86679800457406
H          -7.73868661400238  -16.37233628904261    9.20568304894055
H          -7.06108605873857  -19.19573224968346    8.98235759517408
H          -8.21968846497315  -18.58009359363762    9.97979280842776
H          -5.04969553443287  -17.65095725824791    6.14937565040847
H          -6.79316258274476  -17.94649735160138    6.03745283760460
H          -4.99788158586948  -19.44362815126075    7.78461797798726
H          -5.71462136585659  -19.99231468900265    6.41642970327398
H          -8.39535302277854  -16.30205482577664    5.91281116378771
H          -8.53346753230773  -14.83440573280176    3.87633917720796
H          -8.72902531778308  -12.30733537794417    4.20741271624281
H          -6.75046770230926  -11.58649587719793    5.47223759521058
H          -4.55853097248029  -11.38704897292889    6.87853567967901
H          -2.57789527193021  -11.72931773268650    8.26400310318688
H         -10.76062179520692  -14.00384617921908    4.22385516801784
H         -10.26339174174469  -15.09460552849854    7.03846721074453
H         -15.41310762048899  -14.12197687506698    5.46794479277368
H         -13.02982808091691  -13.83757117341233    4.53782734789959
H         -17.34292700721967  -14.68582543279862    6.74622023487034
H         -19.00644895937597  -15.46848630317565    8.56987205987458
H         -17.94733809671770  -17.88127177498061   14.01492545327097
H         -16.26023694226536  -17.06625557100864   12.21580454812806
H         -20.52659091462402  -18.10670728224853   14.40459265800347
H         -22.16437540172603  -17.14720580881863   11.98567230649989
H         -22.88090595645894  -18.33319648919614   14.73030518161096
H         -26.87106602877432  -16.69128367606124   10.11428910213338
H         -28.47138542671528  -18.55186037587140   14.44174000547621
