118
 SCF done       -237.423321695645          0.000607933616
C          -2.96560087858704   -6.02318879150541   -1.61266341638929
C          -4.04835353340078   -5.47261139802317   -0.99143335984118
C          -5.25159727786907   -6.17107730598365   -0.73982774887253
N          -6.25261209453348   -6.67472278106386   -0.49391270405371
C          -4.19349680902909   -4.15064741803711   -0.52697704849146
N          -4.41664910600065   -3.12455316768527   -0.06345449737134
C          -2.91366868962710   -7.39971630419211   -2.10578127281834
C          -1.79045937742708   -7.56537250069891   -2.93612186456030
C          -1.50079801679399   -8.77242632271347   -3.54232153326449
C          -2.34074267657339   -9.85108819412890   -3.30025150929109
C          -3.45372996028424   -9.70073699525797   -2.46238758420127
C          -3.75022763460856   -8.47931897228055   -1.87056542866181
Cl         -4.47347262332429  -11.04316940927779   -2.14800925245626
Cl         -2.01068404412920  -11.37135039819364   -4.02299340390313
C          -1.04085150868614   -6.30179928973666   -2.99536702670647
O          -0.06541539913345   -6.03590541088064   -3.65737978396946
C          -1.72729396269934   -5.38101306536807   -2.03601777655935
C          -1.10738789529969   -4.21558160446708   -1.75870808677184
C          -1.41169653529397   -3.20317357339403   -0.76737552699641
C          -1.32630194549269   -1.82662550963352   -1.04841982652235
C          -0.86467726585188   -1.27338039857248   -2.35121629882106
O          -0.29171651628268   -0.20548687119733   -2.39845120489220
C          -1.05892258439402   -2.10070803001034   -3.56561290033431
C          -0.04743760111620   -2.36866987954081   -4.44413148358927
S          -0.53296347852524   -3.41353717838454   -5.71057929055248
C          -2.12696530181996   -3.48025590216950   -5.08653696596459
C          -2.28236426684644   -2.72988780235100   -3.95809870152496
C          -3.59208608458688   -2.52758327328898   -3.29578425525509
O          -4.34321049234240   -3.46211510173134   -3.08495163006517
C          -3.90440732593330   -1.12993462675091   -2.93371554719904
C          -4.86727519512637   -0.88413054221577   -1.95405486963872
C          -5.14700133354636    0.40909045105007   -1.55926784558729
C          -4.49584048898959    1.47432456553306   -2.16074763864961
C          -3.57780612442990    1.24292314798609   -3.17338574948000
C          -3.28020219290806   -0.04910197610878   -3.56086496601956
C          -1.58452419202681   -0.91591641278414   -0.02538159363732
C          -1.85848473133684   -1.32630506950687    1.26172298903288
C          -1.86615968883769   -2.69036236068463    1.56943874757154
C          -1.67137881018448   -3.60778185639971    0.53746862753956
C          -2.00775986635993   -3.16791986888727    2.92762911745906
C          -1.78497055630193   -2.54403024983344    4.12855092239891
C          -1.44737086904853   -1.19653293629772    4.62458286924991
O          -1.33018682444932   -0.14696395538404    4.04160082597296
N          -1.28906159382956   -1.34698074805393    5.99572366605447
C          -0.93889984089514   -0.25329741972873    6.86775122831043
C          -1.48657428770926   -2.64276739288230    6.45619947220563
O          -1.35599385531698   -2.98485333853445    7.60496406816191
C          -1.83339590594113   -3.41685310348850    5.25242582899320
C          -2.15522897201534   -4.70984920282741    4.95157729618776
S          -2.38010846603962   -4.85587952269675    3.22685535251987
C          -2.19081371932145   -5.88657143780289    5.80068716258235
C          -3.09935262762348   -6.92721270992577    5.56822157044420
C          -4.29055468051055   -6.72521802941940    4.68075417926628
O          -5.14784412507061   -5.93433092568207    5.00750539008152
C          -4.35325632791151   -7.56405330915626    3.48014820837522
C          -3.28516516599142   -8.27587050401194    2.99583485885058
S          -3.67165063217817   -9.16369718856811    1.59024047529247
C          -5.30662190091456   -8.61803436213673    1.65673689814182
C          -5.52697943322730   -7.75666692434705    2.68090941506588
C          -6.87942814996948   -7.17624309294930    2.95911335387115
O          -7.81484037885178   -7.90837593385907    3.19190242942171
C          -6.98620047467641   -5.70604750544131    2.92461060159926
C          -8.15490168175372   -5.12381469041772    3.41463804153854
C          -8.29330567354855   -3.75057609652813    3.43875912691789
C          -7.26656750411312   -2.94528511921158    2.97280381472422
C          -6.10631740039971   -3.51572141371390    2.47227573688919
C          -5.96710351934575   -4.88847902637242    2.43976057206219
C          -3.02539341824925   -8.08672859432338    6.33178702297274
C          -2.08115046950171   -8.20838050689594    7.32941404803416
C          -1.17614308315846   -7.16907173283406    7.58519677993461
C          -1.24992755391429   -6.00957389949707    6.81696482789498
C          -0.25069110795018   -7.32568068265162    8.68503426188181
C           0.98262369944920   -6.79419061718109    8.85465097564054
C           1.79151679798850   -6.92978047118055   10.06749053990193
C           1.50278413039661   -7.67274767477124   11.17727779178322
C           2.34119612951523   -7.75794120845755   12.31275388684840
N           2.97087544648980   -7.87632775364654   13.26409518801481
C           0.36760324744925   -8.49347952008076   11.36545969282088
N          -0.50659578813597   -9.19772625371744   11.60578030416663
C           3.00034059340588   -6.13540581956625    9.88043317460394
C           3.00815918882529   -5.61262348325268    8.57610306532365
C           1.78929748170994   -6.03146739744894    7.85653088979677
O           1.55252999081235   -5.84280399743133    6.68553164296070
C           4.04544322818707   -4.82904974862479    8.11005677779031
C           5.09781135953116   -4.54760701945072    8.97066716874127
C           5.09568291129462   -5.05763518255767   10.27624334656062
C           4.05385845049594   -5.85323729252064   10.73748435241242
Cl          6.40052960878247   -4.70031195714421   11.33112225791857
Cl          6.40207049549804   -3.57084383932195    8.43475663771271
H          -0.63822389701323   -8.87241498502705   -4.18208065961652
H          -4.61896275522422   -8.40353492082575   -1.23977207720484
H          -0.19416572351470   -4.05940311621573   -2.32676118176544
H           0.96839647760258   -2.03158894746432   -4.37885517463094
H          -2.88786162910496   -4.03432754558132   -5.60005038535523
H          -5.36894620411786   -1.72218946023000   -1.49675930239332
H          -5.87802744334245    0.58678140262774   -0.78529109505055
H          -4.71299493380462    2.48611137166362   -1.85197819154765
H          -3.08854918189771    2.07219793756215   -3.66119577212001
H          -2.58212243869938   -0.21120502438767   -4.36826153506614
H          -1.54318644513759    0.13641326183951   -0.26314105036719
H          -2.02969766262828   -0.59621874025048    2.03525402320168
H          -1.66495589575221   -4.66568558886185    0.76355741554589
H          -0.90972953138236    0.65445968197009    6.26784438895742
H           0.03730262331830   -0.43197074715273    7.32081284989392
H          -1.68231316328405   -0.15824390639152    7.65948675709496
H          -2.28917998126215   -8.30858470718806    3.39291902960613
H          -6.01613770473230   -8.94825201704491    0.92466651681586
H          -8.93601269172343   -5.77161558486582    3.78335559267689
H          -9.19793631985495   -3.30526662716716    3.82578416279958
H          -7.36771067342701   -1.87014673825575    2.99890464259071
H          -5.31241700508831   -2.88681870423973    2.09720966738326
H          -5.06203092261910   -5.32616394543968    2.04117983661973
H          -3.73780179578056   -8.87949289286381    6.15802584345318
H          -2.03746999806931   -9.11046628128982    7.92135885176700
H          -0.59599541747247   -5.18138402193727    7.02206682565173
H          -0.62716021441421   -7.96766166032893    9.47210835286218
H           4.03232463626932   -4.44403665972739    7.10258985885992
H           4.08935263010809   -6.22728264273025   11.74726392172835
