127
 SCF done       -216.451159127568          0.000897805980
C           3.48752708657483   -4.18737215991792   -1.34752728548480
C           3.12012251845216   -4.51379544414241   -0.06985910663991
C           3.97704439487176   -5.12835772679460    0.86580383830636
N           4.62172405101224   -5.66208467408664    1.65088809220862
C           1.85631002219638   -4.21004802835813    0.47786073793384
N           0.86799531476983   -3.94161982638609    0.99536085558313
C           4.85198037896108   -4.21039364319181   -1.86875065326344
C           4.91836051602350   -3.38078778180373   -3.00331319419271
C           6.10234741173255   -3.17722113172526   -3.68234068319338
C           7.24438573237426   -3.82352728173258   -3.22545528780571
C           7.18339020446719   -4.65893025810001   -2.10367607479305
C           5.99094755011071   -4.85498246252383   -1.41597031658422
Cl          8.60097011724786   -5.46054452865501   -1.55964166861509
Cl          8.73659995600856   -3.59491322138314   -4.04356706789136
C           3.57417313680544   -2.83532540356871   -3.29675859437835
O           3.26434210836568   -2.05003468100857   -4.16091189616342
C           2.66415855292727   -3.51224764031420   -2.33208379680781
C           1.32427463181371   -3.48248210904120   -2.54942974538254
C           0.28747855456416   -4.32696698509812   -2.02776247109031
C           0.54733868038466   -5.64566747905616   -1.61379601030865
C          -0.48699674634803   -6.43902484860714   -1.18785837173639
C          -1.79421667374297   -5.91875095144034   -1.11457021670081
C          -2.06433648653481   -4.61985437982309   -1.52398153934276
C          -1.02983860234081   -3.84564250309067   -2.00273157438792
C          -2.66714020215588   -6.93826591712629   -0.57962200036632
C          -1.90388319133303   -8.08587699471194   -0.31572840040674
C          -0.46063368628768   -7.87764306516788   -0.72320215127092
C          -0.17521691750475   -8.86065170782232   -1.88356831148942
C           1.17871111484211   -8.71681049589046   -2.56600764382405
C           0.51049969860975   -8.08439898648445    0.44996987120633
C           0.10747688590129   -7.29057599453049    1.68745284660221
C          -2.49016358217066   -9.21910411144612    0.19715032844079
C          -3.87022779518128   -9.23089436556740    0.43571266453173
C          -4.61407653647225   -8.06813061108669    0.19478845070560
C          -4.02788692118185   -6.92486640072033   -0.30507017741571
C          -4.55063659292514  -10.42119389325017    0.90620540120586
S          -5.98913704414774  -10.24451028036977    1.86954840518454
C          -6.21151208779011  -11.96214742061861    1.95034016553684
C          -5.23163395793210  -12.62356373684644    1.25245053438665
C          -4.28572197993855  -11.74892815653743    0.65976371880183
C          -3.16041757864896  -12.26226184557755   -0.18669733694998
C          -3.45382094207052  -13.66618403040806   -0.71035576736768
C          -3.89631991404015  -14.58332439798305    0.43970544458949
C          -2.82255386752095  -14.58738144706797    1.49932851070872
O          -1.80310750171586  -15.21416186377563    1.43912403992738
C          -5.23480636781775  -14.10272571392734    0.99427538960066
C          -7.38109557718893  -12.50086826299041    2.62917152762087
C          -7.27051791178638  -13.56795848739943    3.52651453450380
C          -8.40982632079999  -14.09207136295336    4.08938556509684
C          -9.67184582011006  -13.55592207974881    3.78287356806810
C          -9.78354516177480  -12.46323803967856    2.93591945675176
C          -8.63643153873873  -11.94402027358001    2.36944296028471
C         -10.68039277093355  -14.32956283139094    4.47352124586128
C         -10.03835850813045  -15.34088401465457    5.21334828449005
C          -8.53937967672128  -15.25397513566595    5.04548414596432
C          -7.96526461469337  -16.54742572975951    4.43799035121256
C          -8.59074934326867  -16.89771983667220    3.09299212599507
C          -7.84221157610958  -14.95832565688582    6.38728556428140
C          -8.35715787989908  -13.68974025465545    7.05630513737522
C         -10.77164379654471  -16.23090443771145    5.95344976591573
C         -12.17780576610966  -16.16025968420603    5.92903133247002
C         -12.80187598506196  -15.12720385642936    5.21464159269659
C         -12.06309811805625  -14.21058858788956    4.49614001412801
C         -12.91212127774586  -17.13043266246407    6.69087616238160
C         -14.13720599684311  -17.66234668375666    6.42841893401602
C         -14.85271142551821  -18.58079953462277    7.30244337908965
C         -14.59481112690207  -18.81585661707071    8.62604086207065
C         -15.34168921206445  -19.70291854876852    9.43128075420010
N         -15.90505029609397  -20.41242684938539   10.13566537249865
C         -13.57576630002705  -18.19706888333159    9.38267154537254
N         -12.78374537561437  -17.73111886274021   10.07110284619800
C         -15.95577684184238  -19.15390494331596    6.53877281988414
C         -15.96682727464760  -18.57787861450798    5.25765418207242
C         -14.85869202562535  -17.60549952755641    5.12897303936246
O         -14.58418486918400  -16.97104279997068    4.13616748109438
C         -16.90612068433043  -18.92775976642039    4.30895450623380
C         -17.86292362217817  -19.87572238303871    4.64772246774545
C         -17.85834909733118  -20.45774848313593    5.92112935271422
C         -16.90889802158114  -20.10342485013890    6.87262737742151
Cl        -19.04203069050085  -21.63467244653512    6.32404399077518
Cl        -19.05365572309275  -20.33409570802872    3.49912493968422
H           6.13806620099921   -2.53048436422960   -4.54469143887050
H           5.97708499188892   -5.50649483660751   -0.55717148304270
H           1.00784792712752   -2.75269592718555   -3.28957564040405
H           1.55449058404435   -6.02907971815930   -1.67021462994643
H          -3.06753871032513   -4.22507939330276   -1.47390646693413
H          -1.21940725847960   -2.83430262029712   -2.33077214533071
H          -0.96117108681638   -8.73310028875106   -2.63320669331011
H          -0.26316546794630   -9.87347653663139   -1.48372756164510
H           1.25220390949321   -7.76896964132353   -3.09228842385583
H           1.29849568790028   -9.51461409549038   -3.29604299752685
H           1.99317538934580   -8.79166460207836   -1.85038246123785
H           1.51254689198742   -7.77995862105274    0.14304117270065
H           0.54569232908972   -9.14807587009079    0.69581712770202
H           0.03758440227778   -6.22870570527695    1.46198036744868
H           0.84836558152658   -7.42452519268309    2.47225164305805
H          -0.85703065792317   -7.62450128537661    2.06289202820738
H          -1.89002483182987  -10.07929597378894    0.44257453061010
H          -5.67537416363242   -8.08063113347858    0.39646646864258
H          -4.62063296526249   -6.04158825176163   -0.48750386603635
H          -2.24199930273464  -12.29935572217624    0.40931991480605
H          -2.98745744880315  -11.58022161544189   -1.02296699401936
H          -2.55959341980036  -14.07397320007694   -1.18358491739746
H          -4.25142043045499  -13.62810297634211   -1.45522175416340
H          -3.99241595961672  -15.60368394262744    0.05393934960766
H          -3.04380315989229  -13.93902453425047    2.37153372733218
H          -5.48269510072930  -14.65781971769666    1.89898130466797
H          -6.02135772979537  -14.32077816715703    0.26378149553184
H          -6.29722953378117  -13.95755783562143    3.78518066153297
H         -10.74746834211066  -12.03180108233371    2.71334915251569
H          -8.70050866389594  -11.10262130902074    1.69500261563282
H          -8.13136524289942  -17.36713693996125    5.13973545222363
H          -6.88625723745051  -16.42848803281933    4.31728469284709
H          -9.66427960915478  -17.04117379398286    3.19331677973046
H          -8.15576953941771  -17.81642755878474    2.70630860290086
H          -8.41879345933874  -16.10354920027662    2.36949040129236
H          -6.76897781281445  -14.86368523700986    6.20906371612205
H          -7.99599550117980  -15.80832902070818    7.05503435172550
H          -8.19872248730043  -12.82459664964224    6.41611080836077
H          -7.83233945225437  -13.52438564407304    7.99406684155483
H          -9.42097902709278  -13.77004491005743    7.26814249807715
H         -10.29043456450597  -17.00980190520576    6.52750395080991
H         -13.87380229188350  -15.03032467857303    5.25521243314965
H         -12.55649697188212  -13.41701466245875    3.95643393051358
H         -12.38494188467600  -17.50750572558205    7.56009745237908
H         -16.89509883530273  -18.47230718657985    3.33129073677220
H         -16.93335896053351  -20.57707141026758    7.84023412870570
