104
 SCF done       -208.255590963359          0.000231403392
C           0.79706758478501    0.01889045773355    3.19401636778138
C           1.92231376568258   -0.21376466656851    3.94430168155148
C           3.02618937026309    0.66010788808236    4.00230624919844
N           3.96305100305073    1.32051771601370    4.06684325311313
C           2.06728895846469   -1.31266869177051    4.81396739491809
N           2.21567864516211   -2.16695995320418    5.56626267485694
C           0.48629197599005    1.28235978638526    2.52422623855059
C          -0.89697183211980    1.33425323379541    2.27565186717373
C          -1.48660824885372    2.43511201409660    1.68986117396583
C          -0.67529703080053    3.50563436209239    1.33256640946719
C           0.70309056200869    3.45557237080494    1.56464352631028
C           1.29297022924811    2.34804270749475    2.16513204322807
Cl          1.69508877866605    4.77985077294853    1.10448206644465
Cl         -1.37233375858956    4.89451730793010    0.60095894072417
C          -1.52414884241361    0.06891128718247    2.72045476337395
O          -2.69786860068209   -0.22222056323214    2.70343129247893
C          -0.39393518541561   -0.79445321269119    3.14680818768394
C          -0.62332868037946   -2.12849421586358    3.34577155763300
C           0.28260605505991   -3.20374356911677    3.35881157292363
S          -0.22798408663537   -4.74575949491547    3.99896300837858
C           1.29529280221449   -5.47069596933384    3.61822424280801
C           2.13211908541099   -4.55933122495324    2.98540221216828
C           1.57345797893555   -3.30063782405102    2.85203483160544
C           1.58617918039557   -6.81526146664038    3.95649170087411
C           2.76711228153119   -7.50721150395424    3.75265586336135
C           2.73284692206169   -8.81350962607644    4.22618594549339
C           1.52400813190210   -9.15830219611952    4.80610711142562
S           0.41256830182752   -7.82528541947098    4.75196809100727
C           1.16590728659235  -10.39697344285910    5.39866078424907
S          -0.41841711775737  -10.66444927328001    6.06209712075546
C          -0.00023228377088  -12.28041890623351    6.55417767225611
C           1.30677278684165  -12.56907386615127    6.20228265265683
C           1.95584232170859  -11.52192408967880    5.55767524547005
C          -0.96709683111544  -13.07616174608365    7.22304941894069
C          -0.73462533753442  -14.31969751762153    7.70880241308596
C          -1.69628465949295  -15.10657609858072    8.39161020759916
S          -1.24260447829961  -16.67688253181095    9.00952085856017
C          -2.82099518866540  -16.96518113100535    9.66950781090511
C          -3.65351348830756  -15.89407974258985    9.39630737894986
C          -3.02414632329009  -14.84475637008808    8.69478200355332
O          -3.67627570780237  -13.70228453979851    8.37848453662707
O          -4.97318588853386  -15.81618529787579    9.78431330322000
C          -5.88815538731303  -16.33615938228765    8.82946097686796
C          -3.13081755484667  -18.12331369723146   10.42370981912646
S          -4.68341274957470  -18.29700860432925   11.18572192945704
C          -4.21689094276746  -19.82738652330497   11.87101266547214
C          -2.92338556762353  -20.15651145498976   11.51271502072781
C          -2.31592885261188  -19.20218978354839   10.70195193376156
C          -5.10651450910272  -20.56679761642110   12.69420763917300
C          -4.84847776166767  -21.73423942093791   13.38888651424159
C          -5.93718528828117  -22.19389231260762   14.12274465426988
C          -7.05798123665356  -21.39517806170783   14.00521833804078
S          -6.74239098825788  -20.04013827139655   12.95568193340720
C          -8.32165648534543  -21.57067740531128   14.61895083239292
S          -8.60136520232470  -22.87019532204232   15.73416689390926
C         -10.25510754089674  -22.36267541445626   15.97649801847646
C         -10.53635206015185  -21.24054987835690   15.20848174066790
C          -9.46040980783057  -20.79659500873431   14.45558357299276
C         -11.12502415313534  -23.03569550929546   16.85456894651898
C         -10.77400611501530  -24.11065020792825   17.61895477665759
C         -11.68270427582564  -24.73215212700146   18.49185655960650
C         -11.38685221434104  -25.79307920364608   19.31089898695206
C         -12.28865002992768  -26.45729823390819   20.22749746472385
C         -13.61636400733098  -26.18174496021672   20.43678802725143
C         -14.43525360667028  -26.87617946174074   21.35180606322701
N         -15.15802562345332  -27.39563953321975   22.07697362911594
C         -14.36337586887808  -25.18173740727425   19.78051944244141
N         -15.04513721354368  -24.39485400196528   19.29489127568189
C         -11.53037043324574  -27.50535919687948   20.91058938349452
C         -10.21038663255576  -27.49876509793216   20.42943482073678
C         -10.05865212317575  -26.43798129401108   19.40802535929408
O          -9.04471069586233  -26.17386286740058   18.79650488231858
C          -9.25951052699268  -28.38240004627403   20.89590877939503
C          -9.63393352781317  -29.29947527087380   21.86997381589247
C         -10.94562732952791  -29.31461192223519   22.35498746136535
C         -11.90079205125736  -28.42156945185857   21.88137731908713
Cl        -11.39681051572354  -30.45341799363877   23.55969987186998
Cl         -8.47970985849789  -30.41632667438441   22.47859747144673
H          -2.55059593112508    2.46285210031494    1.51589658778416
H           2.35849960611335    2.34150921636945    2.32790775946650
H          -1.67317797030632   -2.39301855592668    3.43219582021869
H           3.11918150622166   -4.81210343025039    2.64492095442900
H           2.06671744238701   -2.48353009133504    2.35599440889239
H           3.62660432765279   -7.07001779422289    3.27854160445388
H           3.56138097200464   -9.49373023821476    4.15372051710148
H           1.77344660714965  -13.51514059526541    6.40739588027105
H           2.97424001351731  -11.57262930615945    5.21769259001141
H          -1.94409510659701  -12.63575061448860    7.35353151132708
H           0.23984308942278  -14.77414057314887    7.59867571521720
H          -4.54369089128897  -13.73089080943781    8.81026673952124
H          -6.87502699945021  -16.22746467812528    9.27361295419510
H          -5.69376857920213  -17.39309330696615    8.62823816741247
H          -5.84032307881149  -15.78041472711570    7.88714858390788
H          -2.43961695590339  -21.06246585931139   11.82829620451304
H          -1.31299823050087  -19.27580755911964   10.32091543803878
H          -3.89466877844163  -22.22813312419920   13.36661562656739
H          -5.92598388047273  -23.08249304418263   14.72880399628682
H         -11.50307703076914  -20.76918620451872   15.21226278924821
H          -9.48379618049510  -19.94181588532610   13.80290774694356
H         -12.13450144630856  -22.64622650416582   16.91616767371459
H          -9.76612355500951  -24.49678824730150   17.56423781100866
H         -12.68585541564965  -24.32602758976917   18.51288076392162
H          -8.25181484691294  -28.35846268289856   20.51219481584937
H         -12.90066088933217  -28.46424686979922   22.28067936497301
