99
 SCF done       -209.627403192514          0.000841008377
C           1.40617229336622   -3.08186287257167   -2.74477438747076
C           1.07778549417384   -3.30041694429283   -1.43283790360272
C           2.00691289168138   -3.24509377674847   -0.37390765235450
N           2.73605138396664   -3.23460122494620    0.51224063601960
C          -0.24901542055701   -3.49551897754202   -0.98909285441141
N          -1.31172594766591   -3.57366179660152   -0.56386398952514
C           2.67804844791904   -2.55285562466274   -3.23252436440226
C           2.47902312003031   -2.01225818040228   -4.51690271316787
C           3.50346417468037   -1.40040126745035   -5.20994635326242
C           4.75735211031393   -1.33647690708944   -4.61405083208782
C           4.96500774408727   -1.88381046361184   -3.34240773289632
C           3.92808263777358   -2.49045911408177   -2.64133460348630
Cl          6.52345684380276   -1.80971692240776   -2.62647181842225
Cl          6.05684405516046   -0.58310584875312   -5.44536636862291
C           1.07529730389456   -2.22962781526946   -4.93491750063253
O           0.53454877981998   -1.85539045071012   -5.94799726260191
C           0.48233816945522   -3.06670463339688   -3.85711794343245
C          -0.69268756611985   -3.72603816706495   -4.06669995175101
C          -1.20999627513020   -4.85078703270629   -3.38310882614735
C          -2.52013497157209   -5.27746684046026   -3.43960081451121
C          -2.65989074010832   -6.46364907064855   -2.66020820043525
C          -1.31786282168195   -6.74779081841132   -2.15552634919980
C          -0.45243406195758   -5.80888214837132   -2.57118567308247
F          -1.02365218093367   -7.81635352297235   -1.40860743902097
C          -3.79642508534192   -7.21366211895013   -2.45182271314854
C          -3.93823061557259   -8.41307637157129   -1.70749419530530
C          -5.24162726382729   -8.86468010978925   -1.82331592429208
C          -5.98360730464540   -7.91070035760190   -2.65721852200090
C          -5.12859473092489   -6.94545721866372   -3.01700105664296
F          -5.40434169552949   -5.88424786070731   -3.77868088021704
C          -5.82241635994036  -10.04562837094363   -1.32653613314119
C          -5.22321845943335  -10.91689035543896   -0.46050692875256
C          -5.77271884203802  -12.13935298723858   -0.03095849762748
S          -5.33312423637064  -12.73320790259744    1.53756993205551
C          -6.47103271711011  -14.03608376679825    1.48314510643357
C          -7.18487890994979  -14.00886733950020    0.26567944824146
C          -6.73511180922034  -12.98573446963190   -0.62447175179247
C          -7.22409945443476  -12.94613021162709   -1.95517024005747
C          -6.51347247166191  -12.21797186460123   -3.04688870129463
O          -5.32014741252540  -12.18774437322236   -3.14912905295436
O          -7.30145998585349  -11.63826373183461   -3.97372660249004
C          -8.27063686226397  -13.77954177276047   -2.29356236555610
C          -8.84611585046739  -14.64356791367368   -1.36241156445464
C          -8.31416838058029  -14.78808777306623   -0.09793191371531
O          -8.85521787688344  -15.62909997504482    0.80177261239235
C          -6.51815180905907  -14.92913180932788    2.57789030988962
C          -6.17160864323298  -14.61287550043722    3.87881267381720
C          -6.33462864059588  -15.76147180869187    4.69651709161262
C          -6.73995817292821  -16.82928729866473    3.77631209121520
C          -6.86187300537260  -16.35218535522523    2.52911617122591
F          -6.93921285406594  -18.09544173920262    4.15596140035275
C          -6.20843998913807  -15.86828529265484    6.06513935558939
C          -6.44915309063416  -17.00754176821082    6.88210257517294
C          -6.26539974903350  -16.66193666497263    8.20871525683545
C          -5.87456217879788  -15.24898042615090    8.26279786853122
C          -5.84196765089613  -14.80009726900016    6.99874911103568
F          -5.53093350969937  -13.56063138395753    6.60246668391483
C          -6.45518476126093  -17.52507183483505    9.30638941549127
C          -6.35101674672649  -17.16302361903990   10.62048247991176
C          -6.59640005251413  -18.08307218806152   11.65703819718897
C          -6.56469511059808  -17.78692406269838   12.99547868783310
C          -6.82805441788477  -18.69620450000007   14.09281248208068
C          -7.11749481920199  -20.03404664912057   14.01182021665473
C          -7.36607889380929  -20.86023090417074   15.12893667969652
N          -7.57815163906932  -21.58937351182413   15.98947530129366
C          -7.20998603606573  -20.78770615348265   12.82254052100331
N          -7.30537226790958  -21.47410630829848   11.90682793460194
C          -6.72673021671861  -17.93006352604523   15.33406875155221
C          -6.39675502184808  -16.59950078482501   15.02390740178881
C          -6.27397200980550  -16.44563485416871   13.55833809280923
O          -5.99712679564689  -15.42667333839835   12.96312428008550
C          -6.23614439213864  -15.64069313023370   16.00306077152011
C          -6.41048648611939  -16.01692662983758   17.32898195334828
C          -6.74006587524634  -17.33932386350896   17.64802752486901
C          -6.89960100653164  -18.30226638120370   16.65742571439935
Cl         -6.95509883200469  -17.79195377106002   19.29022362615273
Cl         -6.22210891222602  -14.85419459453981   18.57783029827085
H           3.33269050214380   -0.98212514971859   -6.18930389769168
H           4.12072867826757   -2.90417437807336   -1.66461257520706
H          -1.26590954489908   -3.38481332032780   -4.92329754325611
H          -3.31878893028323   -4.77438624881829   -3.94845370759421
H           0.60590109037440   -5.78935591791136   -2.39986473695423
H          -3.14338991754481   -8.89676126456873   -1.17630299498025
H          -7.01992732359545   -7.99911408011613   -2.91865366985367
H          -6.83536105089376  -10.24782271731384   -1.64936306984688
H          -4.29128332682828  -10.62476305855180    0.00367065153639
H          -8.24352071448280  -11.73629212082761   -3.78008788570959
H          -8.64737380797812  -13.79934849094021   -3.30677908929356
H          -9.70081780964518  -15.23981706182167   -1.64988129439788
H          -9.63337169200459  -16.06749535394509    0.43249778703627
H          -5.88422619223968  -13.64073330373186    4.22943087735676
H          -7.10305958911321  -16.90605945529249    1.64614201396360
H          -6.74099168474261  -17.97494661729000    6.52272900438211
H          -5.65525928626742  -14.69410887621668    9.15295760872804
H          -6.72443935445907  -18.54800404550328    9.06854794893381
H          -6.09305532706667  -16.15091823559126   10.89013054691552
H          -6.83960065003002  -19.09412791337529   11.35599616753755
H          -5.98261718219168  -14.62545184205513   15.74172088865743
H          -7.15414243933418  -19.30949635932274   16.94321689392805
