80
 SCF done       -175.326035147844          0.000658601667
C          -1.97480466628858   -3.72890292790630    2.59135546096681
C          -0.79306457716407   -3.13733326214422    2.95334567720041
C          -0.35572528619077   -3.01253831626213    4.28813777240786
N           0.04689527267378   -2.90140648091268    5.35657702743355
C           0.06112319870295   -2.49537153644992    2.03304871633019
N           0.74965382021946   -1.91904008907413    1.31740268747876
C          -3.04567383325197   -4.12055429251524    3.50264803786863
C          -4.25437038171535   -4.17924072827674    2.78273233226002
C          -5.44991980143708   -4.48134671846098    3.40224570237751
C          -5.43862949471610   -4.74225176966332    4.76735815890610
C          -4.23774839356512   -4.69815979756855    5.48663205712713
C          -3.03583018733873   -4.38261267106593    4.86185117610630
Cl         -4.23903709413140   -5.03759433341231    7.16840889903405
Cl         -6.90577915692798   -5.12162457642735    5.57267376464946
C          -3.99792860846290   -3.88870066622038    1.35477941694623
O          -4.79820823994791   -3.79837045607870    0.45573544669458
C          -2.51542197158084   -3.78964972197067    1.24897133078665
C          -1.91014675064973   -3.84793260791621    0.03471484384085
C          -0.55754446491742   -4.16461454617484   -0.25437651143164
S           0.40128175239800   -5.21391857523913    0.76643759481185
C           1.73847532067639   -5.08086987219935   -0.28319955635441
C           1.48927098614070   -4.30694642611479   -1.38000163634365
C           2.53615981804401   -4.09793278145606   -2.41740340189851
O           3.68890752866700   -3.90019686079945   -2.14205792887373
O           2.13525122228309   -4.20247963111533   -3.68915202844839
C           0.16485744586945   -3.78367230498629   -1.37375500080018
S          -0.49479620492792   -2.64803699567642   -2.54598241109064
C           0.95292171883669   -1.72942899348870   -2.91349222906417
N           1.26661298193030   -1.42139560370820   -4.21403281930779
C           2.49807529802608   -0.83495936432098   -4.20616710872290
C           3.49992474594431   -0.30935641881571   -5.01995032443310
C           4.55627147737373    0.01022463334535   -4.16505976053070
N           4.19778917930679   -0.27234609422753   -2.86339221876731
C           2.94474239226143   -0.78785398559680   -2.86638814160867
C           1.95366577293671   -1.33711253038493   -2.04274334299924
C           5.86100357804019    0.43011219861876   -4.54567660868755
C           6.94412882215679    0.35332220445672   -3.74474719064812
C           8.28598040079212    0.63380406933734   -4.14152427751776
S           8.68095649803012    1.70705103574499   -5.45713062169308
C          10.35723081954477    1.47976921501459   -5.21094424830187
C          10.62193619269322    0.61347709806845   -4.18481585298010
C          11.96203657760475    0.20008670696612   -3.75441502592220
O          12.18112538784918   -0.57664626694199   -2.85941338211144
O          12.94016028316529    0.77556715687350   -4.46957925843740
C           9.43516057053333    0.11613364033033   -3.58148303487236
S           9.41901311502515   -1.07635592564469   -2.26550246919822
C           8.27926124698537   -2.14733004369129   -2.96237054919707
C           7.71017924642431   -3.15755028856431   -2.25032294405842
C           6.72119675857966   -4.13880620842281   -2.62980278277549
C           6.07911944388274   -4.23792153054046   -3.83478662069937
C           5.15807855066154   -5.25408304255606   -4.16213996056142
N           4.43458146795557   -6.08010829841824   -4.49634073260062
C           6.24436402287529   -3.30690904569274   -4.87825903607372
N           6.33275786443866   -2.55049496546263   -5.73822373106106
C           6.47272993765477   -4.95983033800054   -1.44612394914159
C           7.24392509634916   -4.47965355777556   -0.36980534089304
C           8.06554671439453   -3.34464786426455   -0.83822689755062
O           8.86819666236276   -2.66614412932154   -0.22944617443281
C           7.15454108177826   -5.03259230648209    0.89087709305759
C           6.26775488178096   -6.08484533850362    1.08852463447515
C           5.50162435186349   -6.56582947372657    0.02352895603131
C           5.60341338016645   -6.01834943116786   -1.24942805231908
Cl          4.39116935405863   -7.85728908196637    0.28655363040432
Cl          6.10987223193817   -6.78655021090959    2.64949511552748
H          -6.36942745719393   -4.51223140425189    2.83943256862600
H          -2.12720366765918   -4.35969421118102    5.44152992585704
H          -2.55761105024306   -3.69526334823314   -0.82351229229501
H           2.64715336717143   -5.60858962402752   -0.06961853601510
H           1.19422198468340   -4.41462414924126   -3.77605394087894
H           0.68501129377809   -1.60949028048213   -5.01193885227172
H           3.50870522488231   -0.20742144326701   -6.08562885680397
H           4.77939248671596   -0.13332901769272   -2.05619863887261
H           1.94418511835117   -1.45023709163970   -0.97730360010848
H           5.97956015422225    0.73719789959248   -5.57485797194452
H           6.84555273494772   -0.02235874051463   -2.73413144284148
H          11.06989041186587    1.98193455691225   -5.83351930452356
H          13.80279240516433    0.47065002863250   -4.14688119500013
H           8.03422133733699   -1.97796378601263   -3.99801718504795
H           7.75034924141209   -4.65105350004028    1.70481907459528
H           4.99920105573060   -6.41374456371719   -2.04867212252045
