99
 SCF done       -214.987847546363          0.000761353865
C           2.53147667543980   -2.71527131283054   -0.24646685398898
C           1.67607328790719   -3.13484686253275    0.73707233674411
C           2.09523087146486   -3.53626680361263    2.02409835747773
N           2.37892572267816   -3.87970857445349    3.08125325164281
C           0.27070556189660   -3.13663799832687    0.62511344765883
N          -0.87677651259364   -3.13365903535898    0.61265715513427
C           3.96293063512036   -2.47529448911054   -0.06275735920057
C           4.42054656483163   -1.62686253188734   -1.08792834847191
C           5.73160670519089   -1.19880101741261   -1.14393282554559
C           6.61078703212256   -1.63654502743946   -0.16110774199429
C           6.16683100680866   -2.49500470716594    0.85272095579740
C           4.84263486424224   -2.91680586359428    0.91095285349238
Cl          7.26825466220426   -3.04173429287764    2.04893255948457
Cl          8.24837058351765   -1.12498383218554   -0.19431571465682
C           3.30945471328373   -1.33362742772473   -2.01594010650069
O           3.31101873377084   -0.60165298986982   -2.97633606209163
C           2.17640331329115   -2.18380094807720   -1.54606638240592
C           1.11296199017876   -2.36985585481508   -2.37785546848877
C           0.10528401357280   -3.36179625663588   -2.35695721091483
C           0.12508402062872   -4.60331051506170   -1.75881154770339
C          -1.10280573273815   -5.27298800112971   -2.03949152113933
C          -1.86441178272579   -4.34601160394814   -2.87884371826299
C          -1.15849502186936   -3.22494215685104   -3.08836750621475
F          -3.08264142037878   -4.62243832661621   -3.35295480841368
C          -1.51543999849335   -6.50352464256085   -1.58245751557714
C          -2.75329164462807   -7.15971136427506   -1.80992143139190
C          -2.75574644736130   -8.37535635723158   -1.14271078308330
C          -1.46561685341543   -8.51893786400958   -0.45432733937644
C          -0.75201087178904   -7.41583084305203   -0.71835602590037
F           0.48150633028456   -7.14649091510904   -0.28301345250679
C          -3.82167261711069   -9.29063870637077   -1.13775316217702
C          -3.80089224167955  -10.49542252546062   -0.48673605279392
C          -4.85618701901753  -11.43121562979122   -0.45744425361855
C          -4.68340564530721  -12.65717347629493    0.25002295132923
C          -5.70818266878927  -13.66245320226342    0.33252940721342
N          -5.47140555333908  -14.77731210182898    1.03848931211890
C          -4.31542218811340  -14.94671304775804    1.63046383867847
C          -3.29251745563753  -13.95216258946291    1.53319570742692
N          -3.50329039576931  -12.84982421059132    0.85690519723882
C          -2.03936947525095  -14.14643836592641    2.16786053645363
N          -1.03835158313577  -14.33201979138204    2.69185155183609
C          -4.08914418233913  -16.13588348866953    2.36999195749420
N          -3.87399639444905  -17.08749026059355    2.96935248349642
C          -6.98490611103137  -13.49583290241882   -0.28066413997459
C          -7.15609144829356  -12.27095023100227   -0.98006706441509
C          -6.11973590913340  -11.26914338862296   -1.07683291964513
N          -6.51527437953214  -10.22180522501282   -1.80086112577290
S          -8.01603621899361  -10.46362742387925   -2.31271241269022
N          -8.24841613484816  -11.89954580968510   -1.64885307353471
C          -8.02662774394361  -14.45659482375026   -0.20099858834750
C          -9.35557760998080  -14.23729498984005   -0.53363346110769
C         -10.10041553202128  -15.42422110688724   -0.30291839081103
C          -9.11915982346781  -16.40475861757964    0.17417632706603
C          -7.90132173751927  -15.84872531892038    0.25071208560314
F          -9.43526406200520  -17.66499946391666    0.47995808626340
C         -11.45515664122888  -15.61938933003692   -0.45478772756503
C         -12.20947395127216  -16.79922176629849   -0.20221490747073
C         -13.54603686803078  -16.54331020667988   -0.44630094365321
C         -13.67324329324269  -15.14704377048511   -0.88372651815065
C         -12.44013357826142  -14.62106230082721   -0.88929346083821
F         -12.11337429104091  -13.36993183823022   -1.22765732569686
C         -14.60019584844739  -17.46588674903716   -0.28586289996876
C         -15.92251297615658  -17.17340630966597   -0.46784587881139
C         -16.93134191114111  -18.13753972299182   -0.27340998232538
C         -18.27432610637337  -17.89388688256850   -0.39215511498829
C         -19.35339458143084  -18.84367520357149   -0.19734653549495
C         -19.23944126767173  -20.18622068065872    0.05304609584719
C         -20.33867205934632  -21.05623017453814    0.22147460259222
N         -21.18480045502449  -21.81773652416851    0.36597389368961
C         -18.02861408497368  -20.90269412931029    0.16645187478744
N         -17.09228516335741  -21.55900264407371    0.27204165555278
C         -20.61266120857904  -18.11473791283325   -0.33773397085488
C         -20.33191684950397  -16.77169822939367   -0.64380681372532
C         -18.86980233638328  -16.57026635906002   -0.70921226670110
O         -18.29680032001131  -15.53370123743493   -0.96552549218342
C         -21.33374639200636  -15.84128394087279   -0.83156706142553
C         -22.65289364587602  -16.25891575813722   -0.70877967750822
C         -22.94287754708486  -17.59434773542843   -0.40265694716336
C         -21.92949904273252  -18.52846648418254   -0.21645723495611
Cl        -24.57657277935516  -18.09784582084358   -0.25017103438200
Cl        -23.92871085731121  -15.13311274125322   -0.93076668976327
H           6.06269760391035   -0.54062348078045   -1.93156769505303
H           4.53592557282078   -3.58210025114091    1.70153708309404
H           1.07966840338778   -1.68231692693176   -3.21907978241390
H           0.94026159571544   -5.03256084695561   -1.21024542903311
H          -1.44897395172291   -2.36035076333221   -3.65198677696469
H          -3.55871900279093   -6.77073514047699   -2.40157507946141
H          -1.16331623386595   -9.35141462291630    0.14914406293460
H          -4.70951487082254   -9.01188765074576   -1.68842453931416
H          -2.91859696788171  -10.79466639731821    0.06087376120065
H          -9.76484029649225  -13.31261739895391   -0.88592018572827
H          -6.99346166799674  -16.31886996343493    0.56639302449188
H         -11.80068618464796  -17.73239292140956    0.13328002921009
H         -14.58735824117357  -14.65528455180810   -1.15001851715674
H         -14.32113136578079  -18.46869442044265    0.01619215529484
H         -16.22521338379125  -16.17917724675552   -0.75700273955119
H         -16.60388428726206  -19.13244984538305    0.00013901558954
H         -21.09451130402021  -14.81601816467869   -1.06592623407779
H         -22.19330823341274  -19.54618984024860    0.01940221735283
