98
 SCF done       -198.908600868500          0.000523512956
C           2.41355574682556   -2.45914416131453    6.19166957902758
C           1.23073905311805   -2.78252277170371    6.80375304406702
C           1.06379825002171   -2.84543608444477    8.20192516762649
N           0.88924886787356   -2.93295889249767    9.33295832769714
C           0.02255889256291   -2.98588307885476    6.10137170567170
N          -1.00030157218224   -3.07905570010253    5.58965519048659
C           3.60463026870136   -1.93440682584697    6.85611532059310
C           4.40621121132197   -1.28554404420252    5.89845755024232
C           5.58655086165910   -0.66229110541288    6.24778218397287
C           5.98124579991659   -0.69565938023701    7.57997296205565
C           5.19328411978723   -1.34739212036994    8.53543220079430
C           3.99880459431970   -1.96651553378848    8.18241331235191
Cl          5.70127962037211   -1.39040649058123   10.17471807917960
Cl          7.44600289656101    0.06609678985350    8.05239696971102
C           3.78382146133404   -1.41591133297396    4.56023745739454
O           4.16210988678578   -0.93979846820821    3.51616172482835
C           2.62005557395388   -2.31647702403267    4.76839865873017
C           2.00972354847246   -2.91754300870917    3.70548391089177
C           1.22148479045958   -4.09011342808641    3.70199991650494
C           0.38060696351889   -4.49042330108865    2.68240566108904
C          -0.20883823096134   -5.73994524112083    3.02823771311193
C           0.37651524039046   -6.09421659827834    4.31767993954796
C           1.21803452805162   -5.13251822129657    4.73110457536755
F           0.11631035544278   -7.24073384918845    4.95824890056468
C          -1.11928824422734   -6.48698124883065    2.30993545001427
C          -1.70385036312592   -7.72731236117794    2.65855354037994
C          -2.52634846868512   -8.15320932305152    1.62902394003033
C          -2.48802945253491   -7.13981916987838    0.56773154744578
C          -1.66559947146669   -6.16648453415127    0.98262547615705
F          -1.35169575681569   -5.05704086747207    0.30798120145048
C          -3.23999186063414   -9.36487792357942    1.61680318392817
C          -3.97465746870584   -9.84429805418005    0.56811370203721
C          -4.64422353705586  -11.08276574068478    0.54576740983438
N          -4.70910829961211  -11.94535405926695    1.62110288320139
C          -5.38758690235354  -13.05794362899399    1.24413204623604
C          -5.83216958157587  -14.29249948070390    1.67898921385440
C          -6.47349500926737  -14.88936867404519    0.57374199235628
N          -6.42375323710718  -14.02183893163551   -0.50024707786697
C          -5.76662776341638  -12.89565912356913   -0.12293430942620
C          -5.31064899943495  -11.66253728409088   -0.55372443240253
C          -7.05898089218972  -16.16375954347468    0.45734367667221
C          -7.16296650790152  -17.06799322007743    1.47756988961834
C          -7.68300930963354  -18.36990845093409    1.35255528381375
C          -8.12846256840106  -19.03503202357595    0.22074088145931
C          -8.50768929920924  -20.35120187344227    0.57367691016851
C          -8.28090947921103  -20.44603565400582    2.02298927581027
C          -7.79403584692025  -19.28891116651414    2.49028719654502
F          -8.53401212324260  -21.54702942325312    2.73767218753642
C          -8.95996827387417  -21.36478043917387   -0.24904480654008
C          -9.29539008640024  -22.69916812412777    0.10319031768343
C          -9.66444567712284  -23.39236587234526   -1.03783773963659
C          -9.57563740730145  -22.47464539931780   -2.17613295634554
C          -9.16364662858610  -21.29069841232474   -1.69604702969321
F          -8.95478881271677  -20.17505233636587   -2.40987621479789
C         -10.04340390152643  -24.74761845019062   -1.07859367139687
C         -10.37331313167603  -25.44015009187882   -2.21138360722794
C         -10.73036548658806  -26.79876664125497   -2.16404145716568
C         -11.05480947056890  -27.56679425701748   -3.25451559641323
C         -11.42467155548758  -28.96666507075829   -3.24955430851884
C         -11.55872362646768  -29.78812986736936   -2.15925115777137
C         -11.92734673772267  -31.14823473284897   -2.23251240875073
N         -12.22163338867767  -32.25766494175666   -2.21620087398032
C         -11.35922412646454  -29.41301570257339   -0.81401379061308
N         -11.22041269134557  -29.19479870617617    0.30511110824624
C         -11.64736056688259  -29.36901887957066   -4.63801538798548
C         -11.43859960933659  -28.25854644020643   -5.47338308701452
C         -11.06529913546148  -27.08391453783839   -4.65496432488685
O         -10.82155998282709  -25.97015434138853   -5.06826010206664
C         -11.57872031180359  -28.34013337165658   -6.84337791896911
C         -11.93556899178539  -29.56295074176728   -7.39771714469611
C         -12.14418384954258  -30.67474550606677   -6.57458254620319
C         -12.00281409048165  -30.58704593907930   -5.19381480887980
Cl        -12.58276706641586  -32.18179268638642   -7.27156193965689
Cl        -12.11939895816329  -29.70736754084421   -9.09887867175488
H           6.18660670447254   -0.16232626450820    5.50405634300944
H           3.41538495292290   -2.46264704158940    8.94118299121688
H           2.23022737897044   -2.48261394193646    2.73578574273338
H           0.16065857806778   -3.92775352919847    1.79630030157813
H           1.82740213674887   -5.14727510187501    5.61332552269304
H          -1.52474228605443   -8.25665700166910    3.57356705933286
H          -3.02812534816905   -7.17674082457196   -0.35721882104415
H          -3.15124748265423   -9.95468912480239    2.52048476495977
H          -4.04071800544627   -9.26434614101597   -0.34006619289152
H          -4.32091358802228  -11.76153685759305    2.52936896954170
H          -5.71443558173814  -14.73303397619303    2.64729037792790
H          -6.81185920476361  -14.21792895692458   -1.40708230117769
H          -5.41159409855712  -11.21215666855661   -1.52033330022722
H          -7.43785492555844  -16.43441953119732   -0.51876802659829
H          -6.81417323026535  -16.78346979077561    2.46041113310037
H          -8.16759203121470  -18.64033041111788   -0.77453999994795
H          -7.52842870894719  -19.04994386877921    3.50151285387433
H          -9.25855710670289  -23.10512048562072    1.09515265165970
H          -9.80219377491479  -22.71676097504109   -3.19515733966996
H         -10.06120629887912  -25.26828519267735   -0.12789125666094
H         -10.35963152199080  -24.95166192265777   -3.17278510925421
H         -10.74056521039367  -27.26105384886578   -1.18536532857545
H         -11.41407581179270  -27.47463484961523   -7.46541483765294
H         -12.17155425426431  -31.46585302969065   -4.59377719287750
