101
 SCF done       -206.377313061668          0.000946067877
C          -3.09086720723591    0.03570470397642    5.77824867810533
C          -3.06544079034930   -1.11194479261596    6.52537198493538
C          -3.39597130459474   -1.16116853013377    7.89554254104219
N          -3.67706241578011   -1.25216725730554    9.00426273827136
C          -2.60296156925796   -2.35231748676383    6.03266076818987
N          -2.15612532174533   -3.35852138588261    5.70937737549348
C          -3.24291036806712    1.39236182227703    6.29824335160495
C          -2.74097903349661    2.30031474908876    5.34654144353759
C          -2.71522278221663    3.65885504981202    5.58798950976424
C          -3.21086805887130    4.12360548432284    6.80033537094126
C          -3.72350114238194    3.22673742237722    7.74577749093261
C          -3.73909969536582    1.85708081765232    7.50410555895835
Cl         -4.34485631350846    3.81773503648399    9.23211510798239
Cl         -3.19431226013415    5.80651768297612    7.13732026396150
C          -2.29928483610689    1.56335517573969    4.14110712923276
O          -1.77131951250814    2.00546338798111    3.14946447638025
C          -2.70399495358300    0.15181113395614    4.38853612651682
C          -2.74764640182131   -0.74463305636292    3.36404858064025
C          -3.45958082942020   -1.96751134577028    3.30236196768251
C          -3.19902227206547   -3.00390009897538    2.43429823011801
C          -4.13381879925761   -4.05724177963760    2.67259412431523
C          -5.02187832489236   -3.54978282736374    3.71739764708003
C          -4.63706731559228   -2.32288611943220    4.10253056328618
F          -6.07649157579111   -4.22817385524038    4.18055230773888
C          -4.20465295080479   -5.28760596160832    2.06273984544887
C          -5.11720665111851   -6.34655540954678    2.31655834116455
C          -4.85313738695871   -7.39342855792294    1.45508473197164
C          -3.71601207357818   -7.01147764034964    0.60632886208680
C          -3.34282058477281   -5.77934355676152    0.97700562558552
F          -2.34752775772517   -5.06259073628650    0.45075472996755
C          -5.57681613275352   -8.60417037441384    1.40812796846167
C          -5.37938207343076   -9.58203393396354    0.47792381739089
C          -6.08498984417138  -10.79752065078793    0.34163509465958
S          -5.91013704873242  -11.65164884648394   -1.16192459042738
C          -7.01911962986290  -12.89515245193349   -0.66716848336740
C          -7.48496064875572  -12.64419850600017    0.62922048718517
C          -6.95254589802235  -11.48555893038583    1.19728779793227
C          -7.24426996976916  -11.07083450052605    2.60568423350431
C          -7.83242284062384  -12.23902860187792    3.41134071599126
C          -6.81170338531112  -13.23407802496050    3.65559159651014
N          -6.00188930762423  -14.02090468597115    3.82752121171306
C          -8.99544524639109  -12.87874715767632    2.62407823689955
C          -9.97376621696422  -11.86209049469664    2.30659273838123
N         -10.73075579367469  -11.04622990372823    2.04922688576356
C          -8.46839692619994  -13.52411542155081    1.33345234071995
C          -7.31264987685232  -13.94528155357667   -1.56423720101351
C          -8.06532741252141  -15.08951212280280   -1.38416032047941
C          -8.07842897901553  -15.83403928945111   -2.59531894528168
C          -7.26419097106802  -15.05890720564984   -3.53775078344307
C          -6.80583260111379  -13.94925216976599   -2.94302532356957
F          -7.04052693897836  -15.43403697019848   -4.79765439405035
C          -8.72406478276064  -17.02394855644174   -2.85083656735168
C          -8.74387817571572  -17.77506363854469   -4.06044923604070
C          -9.53100631287485  -18.89717993211248   -3.87986544098487
C         -10.04254029816851  -18.88028183931064   -2.50514395206248
C          -9.55994342981062  -17.77905828424634   -1.91266463251988
F          -9.79048140121383  -17.38589769693210   -0.65271838473106
C          -9.84087629070883  -19.92115540115888   -4.80100203992737
C          -9.37940438507511  -19.99355049837655   -6.08522200520308
C          -9.74383021531909  -21.05650682482143   -6.93397717192987
C          -9.31649453870503  -21.21603679622686   -8.22620497467252
C          -9.66584744606131  -22.29478835349731   -9.12960537530380
C         -10.52860846353886  -23.33252850597968   -8.88834701880259
C         -10.82654848798236  -24.34887947704220   -9.82167288444754
N         -11.11239594339150  -25.20714567691139  -10.52789237597625
C         -11.25039618207012  -23.54425834457829   -7.69458115551001
N         -11.87860064878575  -23.78766546743644   -6.76475552312923
C          -8.93649655555214  -22.07787058064221  -10.37774623771076
C          -8.18009776884145  -20.89845132712953  -10.26613371770488
C          -8.38347103225956  -20.30036680058749   -8.92914911608328
O          -7.88195684152642  -19.27899425731867   -8.51376551781271
C          -7.38707441197765  -20.44029310377021  -11.29814655563012
C          -7.34401227217780  -21.17851686117347  -12.47419084974590
C          -8.09215116052288  -22.35575308734895  -12.59431326410065
C          -8.89113202053644  -22.81233662895821  -11.55182585624059
Cl         -8.02846268319449  -23.26123585879003  -14.05139813789546
Cl         -6.36887328366253  -20.64461429976672  -13.78167811593917
H          -2.31841072975785    4.34117049038493    4.85299042227181
H          -4.14240560500437    1.19277148320947    8.25128925881388
H          -2.22626496689248   -0.44512875612642    2.46031075752629
H          -2.38740863880947   -3.04642852345072    1.73470680118208
H          -5.12697797665486   -1.68671080470843    4.81339336015594
H          -5.89162918631588   -6.32528403377796    3.05782460434595
H          -3.26827899803410   -7.61535612718789   -0.15748683403602
H          -6.36119206486289   -8.69821943019187    2.14284965082572
H          -4.64127788218029   -9.40729254276332   -0.29350095272616
H          -7.96819049547500  -10.24907893116745    2.60826477904396
H          -6.32557187521471  -10.72123248523572    3.08417788465734
H          -8.18978074685704  -11.87194300039997    4.38092128789774
H          -9.48992650186342  -13.64288210647393    3.23567391526357
H          -9.30841168093479  -13.73825729847727    0.66732687794036
H          -7.98522913486379  -14.47390402910457    1.58422917957306
H          -8.54981302617755  -15.41505815229367   -0.48887432848953
H          -6.18959003186781  -13.18314524823748   -3.37156114954573
H          -8.22765243866908  -17.49879456904795   -4.95822457960489
H         -10.68363090882722  -19.62701044753326   -2.07897176311751
H         -10.49802768630665  -20.70627051099643   -4.44465041558508
H          -8.72052194037297  -19.23200303798365   -6.47242070205279
H         -10.41047262668878  -21.79951178954689   -6.51494333828628
H          -6.81578487321086  -19.53183563777840  -11.19009978599479
H          -9.45133673119854  -23.72341667852074  -11.68264738058561
