107
 SCF done       -209.480218182926          0.000567330734
C           2.63597343854561   -2.42002190127604    3.21634428575188
C           1.75107273588124   -2.76133498929207    4.20562882358884
C           2.10448009090879   -2.87959267761097    5.56492881822776
N           2.35346981888607   -3.01120584036198    6.67763919562167
C           0.36638690847495   -2.93016382876828    3.98464517223767
N          -0.77360546218634   -2.99893272740352    3.87483631215583
C           3.99513136290304   -1.92308480084061    3.42108810492272
C           4.40123874920630   -1.23213994664254    2.26422246751965
C           5.63387719763609   -0.61725477775536    2.18562975831699
C           6.48552704117811   -0.70385613273497    3.28058416908032
C           6.09301374692307   -1.40122997146691    4.42866232292442
C           4.84525334769030   -2.01057751854477    4.50972583007370
Cl          7.16332782823448   -1.51321594506367    5.76648679361115
Cl          8.02830698712704    0.04793580079706    3.21986421821611
C           3.33464492483245   -1.31198443190627    1.23910303384404
O           3.31441163860256   -0.79516608236065    0.14724334933817
C           2.31409829113674   -2.22261255700982    1.82139980024223
C           1.35534382633800   -2.78104879628952    1.02610453066474
C           0.59383208841593   -3.94868426772665    1.25441811104454
C          -0.54292799475880   -4.30765579180685    0.55703348832748
C          -1.00854552513473   -5.56481328915138    1.03814599399771
C          -0.04151637378631   -5.96483084001145    2.05619775694576
C           0.90971024160849   -5.02664804850617    2.19457478701178
F          -0.09896270608898   -7.12904317699317    2.71500947023188
C          -2.10707901763519   -6.28718503986052    0.62054260779715
C          -2.56573723199937   -7.53718361930826    1.09884036801229
C          -3.65897746318455   -7.93818081913269    0.34753637524150
C          -3.93099883095394   -6.89754737575446   -0.65249979087192
C          -3.02366327960993   -5.92881463210379   -0.47550617760177
F          -2.91782545217980   -4.79946341709531   -1.18025463246326
C          -4.39262473726183   -9.13525145803126    0.43889035000736
C          -4.20374287136311  -10.07419769957079    1.41468864972241
C          -4.86444915226297  -11.31200374200977    1.46750014333685
S          -5.91237697188842  -11.85104177534874    0.19019392740238
C          -6.20381118414548  -13.37670892075198    0.98355327478118
C          -5.56431884551048  -13.41194419884256    2.23246601821853
C          -4.78614078365254  -12.27984387157727    2.47853442995951
C          -3.94215922616192  -12.09730124948857    3.71531067764729
N          -2.64974283741305  -11.51889479639913    3.37473607416132
C          -3.82827506139524  -13.43082979899195    4.46881873799353
C          -5.19997968729616  -14.06703736929490    4.61365650768298
C          -5.73743025863918  -14.51518622478139    3.24453760947288
N          -7.13339189303274  -14.92471270218711    3.29491990141687
C          -6.92270378928538  -14.32453677296285    0.22738852482052
C          -7.07309699932934  -15.65871040034196    0.47785611727915
C          -7.70760210353632  -16.56055044584628   -0.39660856964168
C          -7.77841680073531  -17.93085575136420   -0.20561055556948
C          -8.43006886249784  -18.52726178345501   -1.31205570377825
C          -8.78267978963571  -17.40711389161473   -2.19638881976565
C          -8.36164083827293  -16.24737103187336   -1.67349620338264
F          -9.43012229789049  -17.56288131464338   -3.35572393321488
C          -8.65391430190815  -19.86664322859687   -1.55692946363742
C          -9.25089970270311  -20.46788291508440   -2.69858228964797
C          -9.21462553439323  -21.84449428516932   -2.55808576856855
C          -8.58838428641284  -22.15497703282536   -1.26974327252942
C          -8.26915082561590  -20.98544206965431   -0.69447173197678
F          -7.67778999001310  -20.82337885398929    0.49642294380741
C          -9.67546470627693  -22.77601682515192   -3.50914497406276
C          -9.56956333322489  -24.13391490532431   -3.38635817611294
C         -10.01897442265240  -25.00662797788768   -4.39324475603951
C          -9.90569473739213  -26.37365230380228   -4.35216926968042
C         -10.33425082471091  -27.31174045766952   -5.36920813406134
C         -10.97736134685671  -27.02530479815953   -6.54616227149425
C         -11.36520581882373  -27.99670463595189   -7.49352779456734
N         -11.70818388546326  -28.73148865876322   -8.30594739365970
C         -11.35336987727108  -25.73949393534458   -6.98877018341647
N         -11.69723532465233  -24.73407938259053   -7.42441866661660
C          -9.96570140681431  -28.65265113907180   -4.91625542740450
C          -9.35070203894869  -28.55514296352197   -3.65648385037656
C          -9.28734850971522  -27.13681095070424   -3.24208422603427
O          -8.81919222108769  -26.71283911097001   -2.20689934230331
C          -8.89742350576165  -29.66737636573994   -2.97762564069879
C          -9.05881005819634  -30.91285768732841   -3.57142384099596
C          -9.66671250105374  -31.02021234534416   -4.82720726065657
C         -10.12374270070873  -29.89600400557738   -5.50652179141779
Cl         -9.85675215313874  -32.56492775107004   -5.55320391895414
Cl         -8.50846769464672  -32.32247375692504   -2.76038635496944
H           5.92711078758417   -0.08291248711836    1.29585848357791
H           4.57334911690267   -2.54204010382206    5.40741915276858
H           1.22627258112157   -2.30810229268837    0.05753754885828
H          -1.03011496015284   -3.71336647972348   -0.19105082937845
H           1.77559448921012   -5.07853349451491    2.82493422210874
H          -2.11428249269066   -8.08620590217350    1.90042961160264
H          -4.72369561092933   -6.93156761046722   -1.37413632275391
H          -5.14415426164465   -9.31451471011821   -0.32125397605887
H          -3.49025243857777   -9.89827342744488    2.20645002089185
H          -4.44772709211339  -11.36635436561723    4.36400599948221
H          -2.12523284783630  -12.15008616290996    2.77793823350699
H          -2.10610298014375  -11.36018258860295    4.21547631154967
H          -3.38247969327908  -13.25468437252968    5.45007747986026
H          -3.16938800967731  -14.10407734106888    3.91250023281334
H          -5.89235949860478  -13.34138021866050    5.05077605652628
H          -5.15296087172436  -14.93190522691713    5.27894448622467
H          -5.15609235893556  -15.38843262441884    2.91209411766754
H          -7.72217213377394  -14.14289789477426    3.56008390458038
H          -7.25896755107293  -15.65797653165195    3.98355836542911
H          -7.32437448043243  -13.93221541001632   -0.69816102867791
H          -6.67619602817668  -16.08090096341473    1.38533910287108
H          -7.38477941988334  -18.46193778460098    0.63839579696585
H          -8.48148277851376  -15.27095073254325   -2.09866005060868
H          -9.64901083200822  -19.93542870155636   -3.54025599768512
H          -8.42499814319956  -23.13687681936044   -0.87281618487775
H         -10.12788897752700  -22.36585257808419   -4.40478317901736
H          -9.11872595343319  -24.56635953983298   -2.50710551545819
H         -10.47397436982176  -24.54952997841642   -5.26271543873654
H          -8.42954287942078  -29.56837845927512   -2.01089280752787
H         -10.58606454177384  -30.02010420990990   -6.47182744211965
