81
 SCF done       -164.608743523850          0.000924166877
C           0.55945221489273   -1.48829967206550    1.16111895567733
C           0.03905728252767   -2.07753276376747    2.28486416042794
C           0.58636228849633   -1.93340445557036    3.57539377490186
N           1.00793872699805   -1.86499173218735    4.64080808500697
C          -1.16362670698754   -2.81155338554317    2.27679532329072
N          -2.16391420033354   -3.37319427600134    2.30937172888865
C           1.60833255099903   -0.46928279342236    1.15045239714296
C           1.53828208243464    0.23893002329699   -0.06338590114990
C           2.38537975501634    1.29339199287136   -0.33510139279680
C           3.33262100228488    1.64175647287433    0.62065307213798
C           3.41589710114095    0.93380223787348    1.82463167379179
C           2.55256116988139   -0.12164289901850    2.10055118102884
Cl          4.60104383612967    1.36677231964256    2.98909175912707
Cl          4.40623877280711    2.94749346774573    0.31766998908546
C           0.47645298518432   -0.34510088241286   -0.91301109829342
O           0.10151365549949    0.03117617278202   -2.00016443037094
C          -0.00180738399238   -1.53694978056778   -0.16803034500345
C          -0.76469859591513   -2.46362554378634   -0.82020631437467
C          -0.99350898441249   -3.82001921589100   -0.51814906838421
N          -1.94075597354778   -4.54503165510070   -1.19271528187966
C          -1.90536822793687   -5.84212610115088   -0.79782386277334
C          -0.87121151041091   -5.97534654802971    0.13653605649393
C          -0.31462135128311   -4.72304556236265    0.31539906610936
C          -2.75832769947832   -6.82170463942631   -1.28627879930250
C          -3.48669490556978   -7.69852381622982   -1.70582688049941
C          -4.28722327685654   -8.72097092010474   -2.18339327823590
S          -4.00630899632383  -10.37144386986175   -1.71627758688484
C          -5.32535801309288  -10.91460051546945   -2.71146838093850
C          -5.93167603431981   -9.85725140870952   -3.37381816177260
C          -5.34914666025911   -8.61728139656935   -3.06333274526266
C          -5.81166188319453   -7.31092152074934   -3.62793349101536
C          -7.20843825311385   -7.45287033960884   -4.24953679799662
C          -8.20668840764955   -7.59000764492910   -3.21229253340442
N          -8.99149813777820   -7.71751078128724   -2.39199827825657
C          -7.25089887656410   -8.69894197606332   -5.16274841690578
C          -6.20214219017651   -8.59912831229599   -6.15341223150647
N          -5.36194738510748   -8.51994636938719   -6.92349125777596
C          -7.07290067401866   -9.98454635454492   -4.33705996215685
C          -5.62594344796639  -12.30722170361258   -2.73285228357970
N          -6.73168438220514  -12.85645351900257   -3.28453370015681
C          -6.70284153787276  -14.21904820273539   -3.12505878648795
C          -5.52565809982030  -14.54470089277441   -2.44440901470348
C          -4.85985574652373  -13.35709534876199   -2.19865392968625
C          -7.76137201071342  -14.93083651421400   -3.64111545024992
C          -8.80975277037293  -15.20955191350263   -4.20431205653413
C          -9.98766170867472  -15.48623088889870   -4.84503512325579
C         -10.73550404416871  -14.46266650630933   -5.38087605831618
C         -11.99279556733770  -14.55661151537818   -6.08866047428744
C         -12.69893735190805  -15.69452158389500   -6.38066100189033
C         -13.92302003427688  -15.71014736999186   -7.08205975768859
N         -14.91872102859071  -15.79174162786662   -7.64732624051234
C         -12.30666523018092  -17.00267640397565   -6.02721559425663
N         -12.04534125627690  -18.09093456718996   -5.77105450945642
C         -12.39050787492797  -13.19549452669380   -6.45002015875876
C         -11.41471349279007  -12.29736656758681   -5.98270606144830
C         -10.33766735393371  -13.04634204364724   -5.30476801497449
O          -9.33450871875072  -12.56440130360083   -4.80318447078495
C         -11.52988253442811  -10.93627751242531   -6.17541434113308
C         -12.64109207722848  -10.45578168286345   -6.85623977648532
C         -13.61487174122389  -11.34197559816902   -7.32784785146182
C         -13.49794713286708  -12.71418544147522   -7.12702001880725
Cl        -14.98379842966866  -10.73699470441323   -8.16923846860590
Cl        -12.81407976906863   -8.76679770966411   -7.11733582348727
H           2.31277608056896    1.83297335373806   -1.26609957784898
H           2.64388005382240   -0.64800631037313    3.03687127966827
H          -1.17389510848704   -2.11629810168005   -1.76541657137399
H          -2.60763985625026   -4.15484536287455   -1.83908422211411
H          -0.58313283915033   -6.88897910254927    0.61619445230190
H           0.52245832733234   -4.48869449376586    0.94250315629696
H          -5.11020090402353   -6.97915753958397   -4.40132177385481
H          -5.82017942663751   -6.55031333054853   -2.84206436834090
H          -7.44578270378060   -6.55427924251305   -4.83207888012854
H          -8.21004777612227   -8.74061643141808   -5.69330240612041
H          -6.90225143664173  -10.82084199029065   -5.02103069820526
H          -8.00245603929574  -10.17822923567244   -3.79049347420250
H          -7.51710098431260  -12.40016157987570   -3.72572953382914
H          -5.21149721172256  -15.53275046129073   -2.17363243764082
H          -3.91934091640440  -13.23866351551046   -1.69725060710699
H         -10.31019189665225  -16.51515488177280   -4.91632271765259
H         -10.77831528049939  -10.26014384599515   -5.80063782919626
H         -14.26960783587915  -13.36582783390710   -7.50261555025831
