83
 SCF done       -183.188125704447          0.000556916385
C          -3.37310315710951   -5.98141119688354   -2.55886153447685
C          -2.25546121638321   -5.61924978450193   -3.26525486162959
C          -2.30739381580429   -4.92759217684587   -4.48730941776478
N          -2.33930361767384   -4.31253204701868   -5.45704603057551
C          -0.95554000381892   -5.99076215721745   -2.86009396740466
N           0.08560278992759   -6.38557456225258   -2.58618776035915
C          -4.74392179156509   -6.00002404845972   -3.05793023190882
C          -5.54185340974314   -6.76833614813474   -2.18813138786333
C          -6.88221244029380   -6.98357844196075   -2.43305863090156
C          -7.45090517345279   -6.40971160954076   -3.56500841306250
C          -6.66354030237525   -5.64239785424175   -4.43367301367845
C          -5.30995499657608   -5.44179662174198   -4.19492915325470
Cl         -7.38625851019969   -4.91184517223143   -5.81399267791604
Cl         -9.11247966276419   -6.63077376220150   -3.89246333604098
C          -4.71991651505394   -7.24652534059833   -1.05501228266055
O          -5.04779857822033   -7.96721115792548   -0.14664071945937
C          -3.38860313253845   -6.59212432095562   -1.24299654679452
C          -2.51444876194607   -6.56169499913929   -0.20968406240242
C          -1.33530432683216   -5.76706073812397   -0.00880914319080
C          -0.27433730984544   -6.25807108693817    0.71088323541682
F          -0.20841754091438   -7.47150844942793    1.24213245221128
S           1.08077541637403   -5.20699826905088    0.81755743033914
C           0.17639799283559   -4.02556661213545   -0.06923822193777
F           0.72874893098286   -2.83006181469937   -0.25132092279042
C          -1.07401546058474   -4.41700896606049   -0.45717481159721
C          -2.04562754413642   -3.59222580789379   -1.13901742511212
C          -1.72018155309283   -2.52122906743201   -1.88721066557001
C          -2.58275187863183   -1.67958546300794   -2.65565131071680
S          -1.78927431031392   -0.48343704555228   -3.64164604225246
C          -3.29397866359053    0.00804939235003   -4.34859809051268
C          -4.34942038600353   -0.69232523008651   -3.81434378414489
C          -3.95131970114448   -1.64156980010209   -2.84589174416567
C          -4.93536708024521   -2.51220873770550   -2.12740487348511
C          -6.39090484454632   -2.11978617903590   -2.42840279338328
C          -7.24838547490730   -3.21023846110837   -2.02726051733579
N          -7.88076498054154   -4.11015525907692   -1.71843131833481
C          -6.55357627552488   -1.81761598847065   -3.93165461727905
C          -7.94913876524481   -1.65382104701802   -4.27059232862652
N          -9.05022332388682   -1.50547547088142   -4.53391359460717
C          -5.77218866612282   -0.53837927954962   -4.25449589545759
C          -3.33319101751799    1.07108013837659   -5.33761611977565
C          -4.16165587340348    2.14924453985416   -5.24995945629787
F          -5.06645811131208    2.36815816466825   -4.29641767434682
S          -3.94060251394369    3.35110145124816   -6.47903134318911
C          -2.65607544162660    2.38549613694942   -7.11646400644176
F          -2.01809894778642    2.80017200100032   -8.20180047673585
C          -2.43858698627053    1.20293912801121   -6.46378688454491
C          -1.43021609116273    0.25240191630379   -6.86188704852743
C          -1.55306126264973   -1.07644011511219   -6.65384662218406
C          -0.53255236656066   -2.06073394272203   -6.76315372904996
C           0.69312788239190   -2.04225088314816   -7.35658185371490
C           1.67218044948537   -3.10397288292817   -7.17174953299831
C           1.76480140148568   -3.90501277872358   -6.06577151998611
C           2.74587006275625   -4.90726885401474   -5.90503353522678
N           3.52126056720970   -5.73697573960962   -5.74438433087823
C           0.95026083055346   -3.76135157345458   -4.92268737324582
N           0.35672309080056   -3.65736956805220   -3.94490344362901
C           2.61735810291407   -3.03389341907366   -8.27688043676214
C           2.34610328317923   -1.87101454798092   -9.02034492976642
C           1.19066693770697   -1.15189100958482   -8.43639657677569
O           0.75121348630647   -0.08680499919144   -8.80432114657013
C           3.09855473327978   -1.52555902301774  -10.12445232288133
C           4.14131999779336   -2.36380276757265  -10.49986768004495
C           4.41312142087193   -3.52703648646238   -9.76782698583026
C           3.65788369271074   -3.86806440961065   -8.65133039276142
Cl          5.69852508007092   -4.55609813787268  -10.25076975116834
Cl          5.09886969795929   -1.97030204169796  -11.86812980183048
H          -7.47656042194770   -7.57462361730833   -1.75501852780468
H          -4.72974536760115   -4.85675515511036   -4.89062672383097
H          -2.75762447668723   -7.23405151205917    0.60883590507142
H          -3.06853879228331   -3.91001681065199   -1.01288107761699
H          -0.67385316151732   -2.27903298135045   -2.00508599750568
H          -4.76489861327972   -2.45349295818454   -1.04896973965028
H          -4.78740986125208   -3.55292773836412   -2.43374868876344
H          -6.67193909418397   -1.22728125862446   -1.85633831946411
H          -6.15673253938224   -2.65682793489766   -4.51563123614158
H          -6.23756850519929    0.30794867338647   -3.73920835159173
H          -5.81295998122086   -0.32983017908152   -5.32663130858919
H          -0.55452745703603    0.65864795792880   -7.34736001721040
H          -2.48336755646115   -1.45668434452462   -6.25271271738260
H          -0.79440844208525   -2.98105348335521   -6.25026372049264
H           2.88051888330728   -0.62714545791887  -10.68011326947380
H           3.88934132121612   -4.77135271730474   -8.11043222485848
