102
 SCF done       -200.072456841611          0.000737051776
C           4.20220671040930   -6.12312855378301    8.58567748757383
C           3.49919669850063   -7.30626566288795    8.61827599628101
C           3.41556373095793   -8.14573776234420    9.74908276878094
N           3.31637384529798   -8.88161644005227   10.62433804947083
C           2.70207920046176   -7.80393361913270    7.58065493865600
N           1.99089272307416   -8.27508349678428    6.80745455527932
C           4.81539172595531   -5.50200822005347    9.76066248747353
C           5.01923513086383   -4.13582677781065    9.49660689863594
C           5.55588525239434   -3.28697197607782   10.44109831376704
C           5.90915147733404   -3.81597137970083   11.67773917624987
C           5.72418819518916   -5.17722898020089   11.94234986668989
C           5.17333245513576   -6.02833850100154   10.98949832311875
Cl          6.18276147269078   -5.82068785002980   13.46679541657867
Cl          6.57783536030800   -2.79127224371719   12.88152541042381
C           4.59435610062746   -3.83964935151595    8.10949625795355
O           4.56817305798474   -2.76594816460455    7.55394038165737
C           4.24070764973789   -5.15640629064900    7.52084171767498
C           4.06522041704647   -5.23696399369398    6.16439736517628
C           4.11809188019692   -6.35909323652098    5.31691205020043
C           4.62813734915315   -7.62853388826324    5.59709096821484
C           4.43779706378806   -8.45978896000304    4.46764584853993
C           4.79602072664411   -9.80936209923718    4.37649161835178
N           5.04231901350393  -10.92898511406614    4.30975565402735
C           3.76042094235267   -7.73406243199346    3.49386350572712
C           3.56038100487815   -6.40967713851609    3.98045721876623
C           2.85957782160446   -5.42705798639630    3.26224639793484
C           1.75861555908521   -5.80227849754661    2.32760827943745
C           1.46789397175348   -4.67384739439872    1.56032406895619
C           2.25541864805541   -3.61819659616913    2.04297032381695
C           3.08132911867595   -4.07172531918585    3.10017197111309
C           2.23436697346054   -2.30701712088188    1.54738447477531
N           2.21397978497668   -1.23556647254858    1.13608306115382
C           1.07436939854841   -7.00637647480915    2.40689924906874
C           1.13230641651554   -7.83498636836842    3.52259946778233
C           0.73688307390919   -9.16923042066909    3.58870756146175
N           0.83023755034377   -9.85465227351120    4.78106619214787
C           0.50033456555827  -11.14335303756486    4.55977906807820
C           0.37260819063966  -12.38101055790529    5.16009850324741
C          -0.05485810594123  -13.26816165589914    4.14819725382951
N          -0.19274834849486  -12.57720465091002    2.96159332195718
C           0.15106165851523  -11.27896467376972    3.17078561809785
C           0.30087951803888  -10.05585081258386    2.56374335348545
C          -0.30679917630143  -14.65194312232140    4.20684194446656
C          -0.20668464558231  -15.41185043296380    5.33845300810516
C          -0.39976369001432  -16.80517117970911    5.43197139366431
C          -0.75227476089238  -17.46235928500289    6.59065455224717
C          -1.07530233520310  -18.81674276280668    6.26957951984195
C          -1.51501558588438  -19.78395466304399    7.18323824627483
N          -1.89716237031450  -20.57328359374806    7.92360047862225
C          -0.92613271535564  -19.01150504114084    4.90953275283436
C          -0.46592126163950  -17.80027773374055    4.32963414072637
C          -0.01197558422353  -17.64325095452084    3.03259314948638
C          -0.38863005611061  -18.43615344003138    1.84593563356669
C           0.47916075294034  -18.09413647310508    0.83435407036117
C           1.38547333889657  -17.09563977692765    1.32158065032739
C           1.06571193662289  -16.79850375210206    2.63058047448404
C           2.40948939687390  -16.50853477571763    0.56664646434530
N           3.22748161786264  -16.00954492787212   -0.06538538183887
C          -1.53068503340140  -19.26019157449779    1.68062149721021
C          -2.62356571320290  -19.26659345155608    2.49331212051555
C          -3.68515688763383  -20.18044640375459    2.33308677810911
C          -4.68948019479531  -20.35072760986777    3.24781746759317
C          -5.78942239041511  -21.29251885664747    3.16524035719793
C          -6.15870244776791  -22.03350637948842    2.07360162967638
C          -7.25525389748700  -22.92214437201432    2.05318907978674
N          -8.13019518244487  -23.65979226487447    1.96862364978775
C          -5.52460636024846  -21.99820098728920    0.81342090841291
N          -5.06918719000760  -22.01476111903570   -0.24050827256936
C          -6.47509551037317  -21.28092070583777    4.45501726827064
C          -5.86871414862920  -20.32184187902669    5.28545750698662
C          -4.75758981731869  -19.66979704481178    4.56467566064024
O          -4.05440635711997  -18.77345790238651    4.98486036950108
C          -6.30324043032000  -20.09581607096410    6.57559029991569
C          -7.37354499207789  -20.84325877502293    7.05051713605899
C          -7.98521270262620  -21.79916527450634    6.22997845973444
C          -7.54206182728950  -22.02506529607597    4.93132653824879
Cl         -9.30510698544213  -22.71714886482255    6.82967458035166
Cl         -7.94509445230534  -20.59358188501728    8.64831971810135
H           5.69597846551016   -2.23965377191784   10.22517537645301
H           5.05118446997163   -7.07289854384354   11.22552141683055
H           3.93973200588645   -4.27426008857471    5.68136622467656
H           5.14694884474062   -7.92523609893299    6.49003763658468
H           3.55397237466268   -8.07309304754563    2.49677400602413
H           0.71541141012242   -4.59405530798006    0.79895410016305
H           3.82830962877391   -3.47072327558585    3.58304613210797
H           0.44063417149013   -7.28830542137014    1.57571987445048
H           1.46740315610166   -7.41056983642343    4.45913881110849
H           1.18398129381719   -9.42746793527827    5.63603519248815
H           0.56046631091848  -12.63792124833247    6.18197900342871
H          -0.45439671764794  -12.99592309725936    2.08529415264486
H           0.13584851193418   -9.79123957823383    1.53905088036478
H          -0.60943673977716  -15.12130304941518    3.28027640222588
H          -0.02892734034433  -14.90782069246465    6.27947086096988
H          -0.83291379039984  -17.03051949383329    7.57048429250115
H          -1.02456231429799  -19.95047192292417    4.39988452277007
H           0.46787976423760  -18.46828722443671   -0.17243629322727
H           1.62324106190152  -16.15067639135101    3.28016864845471
H          -1.52586778436054  -19.90156541290665    0.80614693897299
H          -2.69028526860781  -18.57134698149687    3.31541768720879
H          -3.65834412550441  -20.81671928378902    1.45749082131272
H          -5.81805425546747  -19.36095713909400    7.19819976018080
H          -8.03413046989712  -22.77326407436382    4.33184925735194
