103
 SCF done       -206.383957345620          0.001323377208
C           5.28316759126647   -4.66966276318164    7.57453085644251
C           4.27136010682718   -3.75569134803625    7.44881302816653
C           4.25104065742823   -2.50398263857333    8.10209995762985
N           4.17638965172539   -1.47421117720358    8.60204574086952
C           3.10394625054891   -3.93488796955512    6.67552758301782
N           2.12900981694573   -4.01465018595036    6.07397234334910
C           6.47041256347975   -4.51424751086287    8.40914580177947
C           7.22321299341778   -5.69987202457128    8.35508786619996
C           8.40971266126678   -5.84288658231060    9.04532158611288
C           8.85829763742008   -4.77539477485277    9.81246903155591
C           8.11521113738337   -3.58967295242074    9.87276649090576
C           6.92094921591038   -3.45026220155118    9.17471478397760
Cl          8.68293652742988   -2.27680464243385   10.82152336854046
Cl         10.32759495295273   -4.91245126530815   10.68818814770125
C           6.54923013529503   -6.68558040311437    7.48312627801846
O           6.93264525430115   -7.80744411969845    7.24074633354097
C           5.35364756216183   -5.98237190765948    6.95133213618375
C           4.57613312945350   -6.40734690560706    5.91615364796797
C           4.57565279353913   -7.68637055198307    5.29513824496164
C           4.77011723756324   -8.91532890625408    5.87420952954556
C           4.51699111109107   -9.93446145865364    4.88828095945598
C           4.63401281632627  -11.31343600445693    5.10807824414996
N           4.70205221018141  -12.44594648545653    5.28157120595232
C           4.13472070201908   -9.33683101524863    3.71173421772455
C           4.14876699302564   -7.91617478609100    3.90491695655179
C           3.95698278234550   -6.95975455843772    2.93174644999115
C           3.33776017788882   -7.16927099725603    1.59279022810987
C           3.66550935824303   -6.07559921312719    0.82266514838048
C           4.39085670157525   -5.14938471130305    1.63267607227937
C           4.53181638796273   -5.66289445920607    2.90985806577204
C           4.89839290324051   -3.92235543300924    1.18089341204879
N           5.31690346844082   -2.92324868576005    0.80203578895319
C           2.48378570185032   -8.20932798622670    1.18087661038728
C           1.74305590487754   -9.04517277941584    1.97718061581313
C           1.00433381341407  -10.11127838739065    1.44090638607527
C           0.19847314415372  -10.93975742342392    2.17593530174636
C          -0.45249812327706  -12.05410922417781    1.62363279988780
O          -1.29670487760210  -12.80470402648791    2.38076404496747
C          -1.74967601773174  -13.83958979525731    1.62854660194802
C          -1.18227364854971  -13.75687480000684    0.35142597196061
C          -0.36596135364926  -12.62007076598306    0.33996033017700
O           0.36430309384407  -12.16578731511950   -0.69357455591279
O          -1.34345445952897  -14.56808921175942   -0.72168192429085
C          -2.67267947012275  -14.78585886100265    2.11714371135837
C          -3.30302122181923  -14.71678795136638    3.32318040600164
C          -4.23420358094122  -15.69066421055601    3.76423002762830
C          -4.31257777231613  -16.99559490804647    3.34815491028950
C          -5.31482883198735  -17.66923630773170    4.12493578478693
C          -5.67979488603988  -19.01134285431790    3.94620295493990
N          -5.97016549774440  -20.10935437228907    3.78263700966146
C          -5.85130539337513  -16.79083240095001    5.03857014980485
C          -5.24715105609279  -15.51321308536941    4.83811907686085
C          -5.66880092037239  -14.32567813230822    5.38926124050087
C          -6.58390188795426  -14.16355318063379    6.54059337299145
C          -6.93880232693360  -12.84129827400969    6.59894983236525
C          -6.26914044467527  -12.13693510163477    5.53498716800080
C          -5.48403631498107  -13.01894522667530    4.83283483663449
C          -6.40869890358375  -10.76795051190269    5.26768810577054
N          -6.51491089753668   -9.64674066918271    5.04710868884111
C          -6.92468551244486  -15.17470417414437    7.48081787765737
C          -8.02364425842248  -15.13600980745252    8.28221805868453
C          -8.31555993331606  -16.18756142249062    9.17802827351554
C          -9.44043903868243  -16.27231078191841    9.95150288121010
C          -9.79492667996987  -17.35111533561295   10.85561582606597
C          -9.06119653838895  -18.47464929503323   11.13375251121093
C          -9.46957534957017  -19.48652662454611   12.02979479401113
N          -9.73824517006737  -20.34363408026837   12.74393044754277
C          -7.80174128712919  -18.79191076930747   10.58206078035246
N          -6.77910922073130  -19.12201567284894   10.17788898608493
C         -11.10008603666832  -17.03136232846538   11.43033671043446
C         -11.53828005906219  -15.79913782105186   10.91468022455140
C         -10.52791067331770  -15.26259588298831    9.97863283789533
O         -10.59337978238528  -14.21624054025256    9.37065971268667
C         -12.74946750097751  -15.24594968702458   11.27739664548779
C         -13.54753404800642  -15.93920685908633   12.17854219785779
C         -13.11939450425664  -17.16678819666320   12.69860975477734
C         -11.89782295699413  -17.71969801061159   12.33048340744651
Cl        -14.11449805236781  -18.01417434221937   13.81146274239163
Cl        -15.06265255632511  -15.28784542112361   12.65338151218050
H           8.97104317845919   -6.76214080693461    8.98796416184427
H           6.37986627744998   -2.52071752980566    9.24134988052296
H           3.88291227507181   -5.69602147138754    5.48448572241529
H           5.02795874768334   -9.11564393436144    6.89546758106120
H           3.97049254754572   -9.83747315242846    2.77721433899548
H           3.37680070366105   -5.90026405082208   -0.19664706301860
H           5.11111660050272   -5.21410373987481    3.69347871264200
H           2.35756152409434   -8.30397181493396    0.10789078903325
H           1.70964596681275   -8.88440524903996    3.04633787155679
H           1.10348527078379  -10.30361199713500    0.38208169863897
H           0.03938208645320  -10.76193014301141    3.23026871761772
H           0.24812071007816  -12.77126963798619   -1.43956361997117
H          -1.93819278268840  -15.29574146849433   -0.50965928235572
H          -2.91794800249445  -15.59418345474046    1.44115807615969
H          -3.08131945380852  -13.88128630501325    3.97016331959234
H          -3.70110482005762  -17.48321261015143    2.61280669182171
H          -6.67125626826827  -17.00633776951860    5.69473975173362
H          -7.56711153998622  -12.37182786047305    7.33184546935372
H          -4.93111491173248  -12.78488985251606    3.94419373828223
H          -6.25712821630647  -16.02405905710414    7.55764087480908
H          -8.72300840109842  -14.31735235491021    8.21191597791720
H          -7.59033697559872  -16.98987555284685    9.22792140737380
H         -13.06603645325392  -14.29972103176775   10.86770281249013
H         -11.60412616230029  -18.66708569985843   12.75165722471361
