116
 SCF done       -222.403106829728          0.007305506428
C           7.55811725306260   -6.81261165821501    1.98613024954889
C           6.89297231969056   -7.93152287068894    2.40912103749952
C           7.27880376132210   -9.24860102224267    2.07776943557554
N           7.52509211567406  -10.34208056478129    1.83153946923898
C           5.78708841228029   -7.94913505441874    3.28592422947641
N           4.92816700162852   -8.08086576049825    4.03741522481297
C           8.84494144132670   -6.81253680666098    1.29415602783102
C           9.42522375553661   -5.53472936082991    1.40179818282428
C          10.66982341662350   -5.25708751221434    0.87348429570713
C          11.35175142396170   -6.27473156776027    0.21716554052940
C          10.77635290343163   -7.54605889799055    0.09731362954502
C           9.52401617519513   -7.82338358612510    0.63317060074941
Cl         11.62443088138093   -8.79186167607416   -0.72399423574001
Cl         12.90437645288800   -5.97132234751550   -0.44544110235095
C           8.50414988881142   -4.63223745276538    2.12604873038586
O           8.68281778679443   -3.47952161886421    2.43969190543242
C           7.27131786057779   -5.43533599271748    2.34616907032138
C           6.12588239589095   -4.83641786024499    2.75817424589001
C           4.81025868201740   -5.38150808403427    2.65871077496406
C           4.35184425886695   -6.14240114025799    1.61055619356768
C           2.99084120321135   -6.51295264891658    1.87313354534364
C           2.17754501847009   -7.29997157097434    1.05709626996446
N           1.49879855557891   -7.99001392740107    0.43672522543669
C           2.64090189160734   -6.04462472857168    3.12156762267689
C           3.75080685265682   -5.33454412330776    3.66647538925832
C           3.84564571158176   -4.86246860909160    4.96863897881584
C           3.04534850393418   -5.39508485821763    6.11201766966150
C           3.28002030391366   -4.56344452721916    7.19266853836229
C           4.22640017737582   -3.58162212540796    6.79785036017388
C           4.60538908325377   -3.79526388757555    5.47256300725742
C           4.70456159972980   -2.55530598177832    7.62420059802336
N           5.08941918092809   -1.71396263231408    8.30371851758090
C           2.39677255276396   -6.63438931997456    6.06733093501732
C           1.65828612013777   -7.19783275002927    7.08216034713007
C           0.96308678421924   -8.40305789218468    6.94107306565076
S           0.11772972531628   -9.08189863377438    8.32971924129910
C           0.77627502043310   -9.18003290884023    5.78668582270290
C          -0.02112851612827  -10.28089261403895    6.00655999835666
C          -0.60993707423417  -11.38676344229015    5.24826203207530
C          -0.46489866335380  -11.64951678573435    3.93211458287464
C          -1.19814387537495  -12.78793290632298    3.27470467819525
N          -0.74006439612333  -14.07148315029932    3.80174901358874
C           0.42380005821273  -10.81377717638111    3.04984562250370
N          -0.10860265428643   -9.45867049515009    2.91065466993641
C          -0.46248475166431  -10.36503036599967    7.35830495300122
C          -1.28928152009250  -11.47425959509910    7.49095776510567
S          -2.18015091696613  -12.24777592414036    8.73032285796008
C          -1.40999594555521  -12.12064983539062    6.23023320628262
C          -2.22260288250605  -13.23662830664683    6.29768314916710
C          -2.73424609868472  -13.46130598665662    7.57917155050783
C          -3.64340871204176  -14.45993075121378    7.96592890695267
C          -4.05254753860476  -14.63925706695112    9.26038318425185
C          -5.05421965412360  -15.49177115824837    9.76242612406794
C          -5.05948443520923  -15.95475762067707   11.06119600631153
C          -6.11432307354631  -16.90156356708755   11.20282277040404
C          -6.39714934659120  -17.59411835664123   12.39069763633164
N          -6.59968116729103  -18.15928163876339   13.36935706798868
C          -6.78957649480597  -17.02282683481909    9.99762124050624
C          -6.21238038177163  -16.12719600744069    9.06561760094256
C          -6.70316580079642  -15.75937551219545    7.82651985791848
C          -7.62165505052286  -16.48912384892975    6.93076203317142
C          -7.78867207950189  -15.71161769973280    5.80305527405775
C          -7.07035008490688  -14.48552627528603    5.96878151418849
C          -6.42442711261164  -14.51216882280996    7.18521118439174
C          -7.01345423411336  -13.43816237227182    5.04117103099224
N          -6.92440117119165  -12.58413519986473    4.27941152580949
C          -8.20920073152974  -17.76048030963201    7.14836942355834
C          -9.23559884908851  -18.24714412346446    6.39035531075973
C          -9.94901189540028  -19.41103671112282    6.73190634955718
C         -11.02541693670616  -19.88689587802904    6.02418688194982
C         -11.91978874694608  -20.96157786782678    6.40573277684620
C         -11.92604567267388  -21.65547006811877    7.59056068608908
C         -12.87137108111720  -22.64990064734592    7.92302453560673
N         -13.61113298181357  -23.46161744535771    8.25767323870549
C         -11.02109107208579  -21.45808106787550    8.65516044206776
N         -10.32925461855156  -21.34376727268971    9.56534616819646
C         -12.88645160956809  -21.13839892594947    5.32211370836501
C         -12.62079991013212  -20.19377428909570    4.31726940009277
C         -11.46322493357261  -19.36219615984766    4.70966399394707
O         -10.98104939527820  -18.45869360753507    4.06150096698159
C         -13.37499392013252  -20.12099245462022    3.16541234123336
C         -14.42634539576996  -21.01510861804650    3.00935170267487
C         -14.70040420712199  -21.95929928622621    4.00402739861416
C         -13.93574093392227  -22.02928415630841    5.16284887624856
Cl        -16.00282757013600  -23.05902831313409    3.79783884917680
Cl        -15.39359877510604  -20.95592342523878    1.59191208534494
H          11.10134546902388   -4.27355399899076    0.97155583713432
H           9.10899851840222   -8.81128493069874    0.51680607715510
H           6.23327581881229   -3.81850631460328    3.11310124580292
H           4.88795017926466   -6.38179456128709    0.71017548678604
H           1.66455766439702   -6.11886962777821    3.56103964421854
H           2.87763073219892   -4.65444075571544    8.18327006981383
H           5.28145574391268   -3.16807972756397    4.92578394280992
H           2.52804344729825   -7.21165365345888    5.16544014497122
H           1.58047991382083   -6.69307040928590    8.03517723648727
H           1.17058073525945   -8.89762069504732    4.83066069346442
H          -1.07801452316089  -12.70875969573939    2.18303674491746
H          -2.26853945352063  -12.70521406283213    3.49724881610272
H           0.26236827682652  -14.16363787245712    3.67184378580735
H          -1.18568773172249  -14.82937448133521    3.29542694648941
H           0.54742087647600  -11.32086998818170    2.07999402025978
H           1.41793298927776  -10.72944056602840    3.50486707144126
H          -1.06768306315792   -9.49916637865721    2.57899961531364
H           0.42478192751605   -8.96140305298349    2.20177991407623
H          -2.43119270026773  -13.89988468347739    5.48087263716860
H          -4.01892268937246  -15.10025744275991    7.17923462355027
H          -3.50672169190386  -14.09411791502364   10.02442172399520
H          -4.35451820529304  -15.70491042828933   11.83149433508959
H          -7.68705056091435  -17.59518923689190    9.86703444556041
H          -8.35158526183061  -15.96333957244573    4.92408871132759
H          -5.89880490681078  -13.68843985506748    7.62591513650442
H          -7.86127058596079  -18.35530572939315    7.98072364396777
H          -9.58434402180000  -17.69007898727317    5.52963051827602
H          -9.64948652837825  -19.92317390244426    7.63841994064828
H         -13.15078765369828  -19.38618337520479    2.40866570685088
H         -14.17719637763092  -22.77392618506582    5.90417045728541
