132
 SCF done       -223.377024572685          0.001373489707
C          -2.23961456378736   -5.36143122724521    0.89975385117967
C          -1.30717530842097   -6.25950682245851    1.34145099136586
C          -0.00103346525810   -6.37270350757437    0.81147224731013
N           1.05896892546785   -6.55669989812633    0.41262811401782
C          -1.43059374661204   -7.13456065057940    2.43895075715477
N          -1.39963224031407   -7.81970759017333    3.36010980184991
C          -1.92599729827921   -4.25095376127006   -0.00440623454940
C          -2.99480862369285   -3.33820360432807   -0.00631742109045
C          -2.93378225374494   -2.13307820708261   -0.67631499939163
C          -1.77667803491404   -1.83266322155201   -1.38065607726452
C          -0.72362207178543   -2.75144335583440   -1.42369887919929
C          -0.78703176488739   -3.95947560176573   -0.73971055382098
Cl          0.69459294346499   -2.38149796762749   -2.32533002992372
Cl         -1.63360700206936   -0.31974979841468   -2.18488830004052
C          -4.10188640759093   -3.88783191998104    0.79384898613063
O          -5.19497863441168   -3.39562934325687    0.96964382992178
C          -3.62614608831183   -5.19942619856243    1.31077191446061
C          -4.55374376873853   -5.97424498583115    1.91725920932110
C          -4.51880414106950   -7.29012828752562    2.59042515696598
C          -4.37451678026675   -6.80901053378010    4.01566948928510
C          -5.37215932271349   -6.26439153208811    4.72157587881202
O          -6.63227698257755   -6.27199782202936    4.20455489861233
C          -7.57112051915127   -5.27931324167978    4.56649323689208
C          -7.31202494819595   -3.93324398507310    3.88484977287944
C          -6.24318437336425   -3.02927945218989    4.52977262510262
O          -4.95781976190897   -3.63986704421300    4.62060145701457
C          -4.57700309674589   -4.20448749147632    5.84539709746329
C          -5.11030829957673   -5.64308380229110    6.06628069478965
C          -6.04543054663707   -1.85757196432046    3.61380765169895
C          -6.36793025973529   -0.58950864752834    3.84887393174777
C          -6.09903314405183    0.50214216476910    2.92211840295439
C          -6.81224917337384    1.67129094615138    3.00198750197546
C          -6.53910287577549    2.73095320286990    2.10774163974531
C          -7.13172970041491    3.97354602136347    1.94359441398911
C          -8.32287036005066    4.48865130390129    2.68002754398220
C          -8.10751100203684    5.89145684528957    3.27550914813199
N          -8.75566338716123    5.95815785027832    4.57372144435779
C          -9.55916331156403    4.42879639174261    1.75730749021731
N         -10.75683956115550    4.88385001528452    2.44949389478093
C          -6.41935117858070    4.64095038861079    0.87694070929507
C          -6.58652534645762    5.83843410522103    0.28395452928879
C          -5.70418410833411    6.29786245335831   -0.82168135764932
C          -4.61833532044717    5.33849499356311   -1.20268259169215
C          -4.46116658302118    4.14273257256427   -0.60521640691841
C          -5.35063257066886    3.74084368904975    0.41632499893359
C          -5.44905913413787    2.57974787861369    1.15647860601459
C          -4.72922541706884    1.36704809800648    1.09698679977060
C          -5.06387336020869    0.35836537955581    1.94149475738212
C          -5.04098426437464    7.61340193304444   -0.46819878949551
C          -4.84525620366333    8.58957413202751   -1.33761608481997
C          -4.02392221101956    9.81682113927187   -1.07624271298994
C          -2.83653324496011    9.77085553547101   -1.99314085586221
C          -1.62205387565237    9.29068090039138   -1.71932092634367
O          -0.74273359493723    9.29775652518379   -2.77755062254234
C           0.60008585467789    8.89451838002704   -2.66986697148043
C           0.82796379392175    7.38034100277903   -2.78571750063319
C           0.50143686422509    6.58746441076749   -1.50610622329059
O          -0.89593534517067    6.51502130603101   -1.31282028753762
C          -1.41248393487388    7.26089647321792   -0.24222112501645
C          -1.19899019665180    8.78089928869534   -0.37110083645017
C           1.09947829495957    5.21261042501005   -1.55931990714338
C           0.48325414920932    4.09871178311119   -1.13690668346532
C           1.16747637264486    2.84787822430289   -1.10177507179314
C           0.70780861677398    1.71018683483636   -0.51465931161837
C           1.43950134321154    0.46252045851991   -0.35823902802403
C           2.61481059968706    0.11350099457037   -0.97135560070433
C           3.27787696889734   -1.11560737776802   -0.76962657456104
N           3.87579569301581   -2.08750672309851   -0.64471768327065
C           3.31597662139409    0.90486737217192   -1.90418930468618
N           3.94274948513507    1.47957254783788   -2.67658270405310
C           0.67254171282846   -0.38393941413973    0.54620252239759
C          -0.53785854191231    0.25858035936359    0.86187481612619
C          -0.59513881784455    1.57299770080353    0.18492672235636
O          -1.52093121687080    2.35332734265208    0.20390905750384
C          -1.48256626897167   -0.32654431232393    1.67946649839136
C          -1.22220570742252   -1.58992034321036    2.19548630180064
C          -0.00413837302435   -2.21857583158465    1.91476341086322
C           0.94713261661781   -1.62904362185923    1.09204696859879
Cl          0.33581316852988   -3.75747965771312    2.60044532720153
Cl         -2.41128261849409   -2.38803836630454    3.16239975137663
H          -3.76281263625592   -1.44326470182598   -0.64587569641414
H           0.05161929839585   -4.63310735668171   -0.79732764126551
H          -5.52144118229522   -5.48838651872120    1.99279087906610
H          -3.69098590869363   -7.92864371827335    2.29951779140954
H          -5.46494836082819   -7.81315750222151    2.45529996941931
H          -3.38381095606729   -6.84054976638004    4.43552812500617
H          -7.64484841246370   -5.15306463327855    5.65270782222277
H          -8.52319014547816   -5.68156079549280    4.20768646603742
H          -8.24489353395253   -3.36649444834141    3.87317566404420
H          -7.01726093415285   -4.11629549556196    2.85009890656338
H          -6.57268549605461   -2.71074000919894    5.53092550635721
H          -4.87087191125693   -3.55559659247437    6.68314237018522
H          -3.48481246735545   -4.23676841843987    5.79741095836857
H          -6.01252209861963   -5.63710194166744    6.67755262081301
H          -4.35414013215726   -6.22316071597118    6.59319878724054
H          -5.58871966901171   -2.15128318115871    2.68112088095059
H          -6.87671369408930   -0.31648215434706    4.76652657359845
H          -7.59367157752770    1.78105983774301    3.74086132996350
H          -8.51698040746509    3.82866905586791    3.52957393297432
H          -8.46613345706301    6.66134064086680    2.56896781531220
H          -7.03746239761025    6.06219138456707    3.43298878763821
H          -8.71308519563537    6.89852501312188    4.95178555861756
H          -9.73014085095993    5.68967978822037    4.48238460299413
H          -9.70956995423656    3.38529388035258    1.46864173521030
H          -9.34921255280195    5.00105803965781    0.83860358940072
H         -10.79245816554019    5.89782705984679    2.46649874843805
H         -11.58909798177972    4.56040313566555    1.97010091872523
H          -7.35934119011771    6.53005875530853    0.58923315492451
H          -6.33310644095098    6.47726896196268   -1.70681190400219
H          -3.94587268322704    5.67443456112784   -1.97728664040608
H          -3.65457676854709    3.48201796743769   -0.88526222644840
H          -3.92668690239777    1.26910341180729    0.38077094531620
H          -4.53471866304836   -0.58047593140401    1.90394070077221
H          -4.65997547064155    7.67763735982342    0.54209811711268
H          -5.22864064516765    8.50324436850729   -2.34605950990746
H          -3.73035404931986    9.85343619830790   -0.02718295982178
H          -4.61342083277721   10.70860678673511   -1.30437281103981
H          -3.01409884663029   10.09467161604555   -3.00823588798040
H           1.07762964755380    9.28428651961955   -1.76134533828972
H           1.08031848223852    9.37554582964946   -3.52883029913589
H           1.87464614874645    7.21975194662751   -3.04669225976295
H           0.20022594743658    6.99375681309512   -3.58953111151822
H           0.98103529379864    7.09713043840503   -0.65128739813664
H          -0.98394351393981    6.91575605147715    0.71219176889691
H          -2.48086147486486    7.03778144744281   -0.25227526745457
H          -0.15283779983577    9.02763398354516   -0.18086248036924
H          -1.79058151444695    9.26805132683458    0.40295643896000
H           2.11924588913593    5.16831203754053   -1.92021678421329
H          -0.53289055341075    4.14608579844697   -0.77528804548170
H           2.16266339562086    2.84484685895329   -1.52868702534886
H          -2.39941364889892    0.19019537426357    1.91327159223605
H           1.87040320579345   -2.15002062379297    0.89710103409191
