128
 SCF done       -231.183241762245          0.000633042424
C          -1.14212179632175   -5.59472049532465   10.05713935667537
C          -1.43510047033740   -4.37493084667473   10.61292296125498
C          -1.99721325246626   -4.20236745159167   11.89518049311935
N          -2.44921881344993   -3.99095204600421   12.92892317090084
C          -1.18789241002835   -3.12783718403341   10.00359555957354
N          -1.00269423611219   -2.08095519015900    9.56839779727910
C          -1.37077310298321   -6.89255774495520   10.68794908097093
C          -0.85779017463630   -7.90468797230612    9.85800570456035
C          -0.93370128365852   -9.23771334529686   10.20342134615793
C          -1.55233136236995   -9.57360233270226   11.40099431881974
C          -2.06825356733085   -8.57358050320680   12.23311349671028
C          -1.97930491471648   -7.23015325583049   11.88646158092992
Cl         -2.82476082615518   -9.00261695639135   13.71365848840273
Cl         -1.68146027318284  -11.22212226893116   11.86105850825519
C          -0.24827237336703   -7.29886002698668    8.65656976512621
O           0.48456864116221   -7.84174722157540    7.86468112780607
C          -0.57194241517126   -5.84473962552577    8.74945075647398
C          -0.30070196660664   -4.92632412642123    7.77876319358174
C          -0.03063892152895   -5.25463036737575    6.42707741108584
N           0.67124717724586   -4.44328189070655    5.56826956374173
C           1.38193576620856   -3.24301826448184    5.93432708061898
C           2.59386431562741   -3.54339019817061    6.81087775136789
C           0.73242067321678   -4.97908956818857    4.26827294068818
O           1.31947570770032   -4.43781483016671    3.35502715404623
C          -0.06067641557084   -6.19205548993619    4.34701978403784
C          -0.50918476990336   -6.32593582476136    5.68412876071948
C          -1.37127769979793   -7.48254012314828    5.75514633515089
O          -2.06767349932171   -7.93119836605050    6.64135611896546
N          -1.30827544553020   -8.03879274032970    4.46037681521214
C          -2.13507964405683   -9.18325495559887    4.15344110859295
C          -1.54625769171276  -10.47122449736909    4.72540398644100
C          -0.52601320597309   -7.28612494508033    3.61789629595217
C          -0.21240912463729   -7.59948344369284    2.24717160500936
C          -0.09162032261516   -8.89671494502056    1.79471640849965
C           0.28614376234103   -9.15086198159113    0.46307415367940
C           0.48908877744177  -10.34542829784408   -0.21917200721933
C           0.27673813715993  -11.74367083060359    0.25297111937809
C           1.24014668942274  -12.11887861318780    1.39699192464164
N           1.44386260381067  -13.55373996607373    1.39206020662633
C          -1.19540639262489  -11.96900967099329    0.64612279121692
N          -1.45168911046371  -13.38220408234792    0.88051158054403
C           0.95135609322209   -9.99044539920830   -1.53922538891395
C           1.38739910348515  -10.75448960587030   -2.55752761948819
C           1.91701236777918  -10.15186777580566   -3.81304261072500
C           1.80810771980479   -8.65850873673158   -3.88145812701017
C           1.36994408569036   -7.91009444164950   -2.85171349845117
C           0.96940062056035   -8.52377920571566   -1.64220564377565
C           0.56508293850708   -8.02541813075370   -0.42034592204046
C           0.43010126806505   -6.70654821573298    0.07194050970488
C           0.05631586834415   -6.50315458894716    1.35936898258553
C           1.22847878597228  -10.74664218429540   -5.00715993831066
C           1.88647106332377  -11.38056144386341   -5.98943901608788
C           1.23718010925974  -11.92227103685318   -7.14001256740629
N           1.90390235088310  -12.57510184395839   -8.14693068519003
C           3.30675207668399  -12.90935992119587   -8.18978615049399
C           3.62035615584477  -14.12329413208409   -7.31862116325091
C           1.02919688370895  -13.00596094935257   -9.16402987919972
O           1.39882311076516  -13.56365725630350  -10.17590360527501
C          -0.27612853384042  -12.58513198721033   -8.70356572863498
C          -0.11324447540596  -11.89844503544269   -7.47610954650156
C          -1.41317905142667  -11.40402958117983   -7.07043853735892
O          -1.77712238166257  -10.79113317851613   -6.08595006454359
N          -2.27245618143202  -11.79642785533090   -8.10877660986813
C          -3.68081901040047  -11.47734959910012   -8.09782295099321
C          -3.98292800822054  -10.19889347108793   -8.87643641679001
C          -1.61291592351768  -12.51799012443167   -9.07503717381227
C          -2.19255453671534  -12.96062253337020  -10.29051696593172
C          -1.69236874132521  -13.99812735346357  -11.02116114086184
C          -1.95404439932868  -14.30187785285798  -12.41237809492197
C          -2.78166421650261  -13.61340046877121  -13.26326123753851
C          -2.97988529676874  -13.94611484836831  -14.61981638318515
N          -3.18928461132082  -14.16409474583501  -15.72703540259825
C          -3.55466253559131  -12.49132773618012  -12.90121876328079
N          -4.20685425571898  -11.57524275572256  -12.66692757374461
C          -1.12190636728360  -15.44672626413035  -12.77339568388023
C          -0.43671213666937  -15.89794038279589  -11.63128621076914
C          -0.82336637126578  -15.07990851249254  -10.46508102778786
O          -0.62321974457438  -15.33338328843240   -9.30116587592047
C           0.43326204501698  -16.96716388526719  -11.67916467574082
C           0.63955867457777  -17.59460730236408  -12.90125797562927
C          -0.03679586041632  -17.15205442025609  -14.04452308365597
C          -0.92176656336852  -16.08122691068301  -13.98929667245416
Cl          0.22306980564936  -17.94048389959699  -15.54702128570893
Cl          1.72670421438572  -18.91760809908761  -13.00779422976387
H          -0.53006471883235   -9.99714676413509    9.55311069986607
H          -2.38616617762839   -6.48816604674983   12.55384763416180
H          -0.33712162850431   -3.87111275736705    8.01541324304921
H           0.70115775332969   -2.55590283521814    6.44712630105393
H           1.70297047070898   -2.78696844709099    4.99369730109080
H           2.28951568366824   -4.02670095559182    7.73712663956047
H           3.10971818137758   -2.61875011806335    7.05347450797414
H           3.28207191106825   -4.20154361810196    6.28601910410498
H          -2.27709240844371   -9.24208822920883    3.07244502001658
H          -3.10664762059864   -9.00845692298719    4.62849710781093
H          -0.53826652755750  -10.64916191288589    4.35644621535943
H          -2.17470710117034  -11.31743087161757    4.46008322294283
H          -1.49993240764864  -10.39360944061178    5.80832772382275
H          -0.20142656363981   -9.72665510648683    2.46998613104424
H           0.50446567355000  -12.42857870058077   -0.56955077020848
H           0.84262159125526  -11.73604617289448    2.35039172538581
H           2.20853968862191  -11.63768329739399    1.22197226974623
H           0.54522957111083  -14.00953160638792    1.52736749929044
H           2.06214289845935  -13.82873075936661    2.14726425681962
H          -1.83274306649663  -11.53951570465229   -0.14596736330925
H          -1.41806832855558  -11.43809254552521    1.57435167738963
H          -1.33939692285305  -13.90327202145898    0.01622217779090
H          -2.40522293862620  -13.51812601060218    1.19910971467963
H           1.40103598278564  -11.83433268996887   -2.50324672340067
H           2.98543432614657  -10.41870798144443   -3.86808903026754
H           2.11546228146935   -8.20856620252589   -4.81264384251589
H           1.33071412453118   -6.83381768949423   -2.93183392911598
H           0.63818580376298   -5.87101037121591   -0.57862190811208
H          -0.02957929725964   -5.50294273748269    1.74842706340331
H           0.15657765695311  -10.61308332331305   -5.05368053886077
H           2.96033851643451  -11.49884098290153   -5.92904870090173
H           3.90309451288925  -12.04342631098953   -7.88910929437487
H           3.52827354268508  -13.14179207281259   -9.23518611041491
H           3.38439089938589  -13.92775757801677   -6.27483255242599
H           4.67432955946010  -14.37424448590303   -7.39969106627436
H           3.03162139508210  -14.97477562006419   -7.65064416731737
H          -3.95715062808520  -11.33720008831754   -7.04888694011614
H          -4.24151869094336  -12.32252636312879   -8.50544619206380
H          -3.41871370529289   -9.36899306094465   -8.45804418121657
H          -5.04242074277089   -9.97065190296453   -8.80337038914094
H          -3.72564913981586  -10.30134494105478   -9.92805616924521
H          -3.02961070658315  -12.39073936323304  -10.66805676788740
H           0.94701686240527  -17.29679195111886  -10.79039645251320
H          -1.42614247269935  -15.77079399050833  -14.88971810921186
