128
 SCF done       -251.634242293034          0.000923880326
C          -2.21850378380985  -14.84471991534045   -6.61909032774932
C          -2.49434202106722  -14.55144759720230   -7.93207887200979
C          -3.24489219930627  -15.38458259212030   -8.78701436672897
N          -3.84699318039615  -16.01337474674609   -9.53559464945433
C          -2.08687000213077  -13.38874036095991   -8.61739270030210
N          -1.79661296807632  -12.46891831700109   -9.24175501196059
C          -2.67077302159216  -16.04852410177816   -5.91803732002819
C          -2.21821384273133  -15.99242970791191   -4.58880830504170
C          -2.49090018631920  -16.99324050319592   -3.68052798487291
C          -3.23806887832421  -18.08378107415797   -4.10957171123215
C          -3.69395154254944  -18.14947893543127   -5.42896230027331
C          -3.41522043563682  -17.13585766825961   -6.34128854463018
Cl         -4.61713618203606  -19.50250174600620   -5.94729303733462
Cl         -3.60007913347430  -19.35334794456370   -3.00991222983525
C          -1.45567379784416  -14.74365613698359   -4.38815117727843
O          -0.92780778447321  -14.38371525649584   -3.34834837589649
C          -1.46361646306644  -14.05319746635212   -5.67435928118272
C          -0.82845523704483  -12.85720074298549   -5.95353147462544
C          -0.09354354009529  -12.01220656554414   -5.13040576326892
S           0.17973602865268  -12.21060980135035   -3.42540861854373
C           1.06937419708519  -10.73444316666231   -3.29683736622002
C           1.22825999673561  -10.11417564856729   -4.56054388937647
C           0.54750903321025  -10.82381456129585   -5.58691725994814
C           0.57890286713379  -10.33189983468638   -6.89928902990729
C           1.28944920732905   -9.19205321167752   -7.17795453766405
C           1.34631668558083   -8.63586931820781   -8.57396346098846
F           0.62953481769740   -9.35263408858052   -9.44764323263935
F           0.87476561772450   -7.37901139265083   -8.64278362548376
F           2.59938844544649   -8.59880772945243   -9.06036673883475
C           2.02075717596990   -8.50627686130202   -6.17158827019962
O           2.70820417520772   -7.42398889152996   -6.59016196369167
C           3.45408783509845   -6.68301842737093   -5.65358440964451
C           1.98502989764900   -8.97585421351479   -4.87641909597839
C           1.47161863426449  -10.36439183428661   -1.99291137679015
C           1.89518461863858   -9.15079965151703   -1.55431512801507
C           2.23979339298610   -8.82055425423190   -0.20166132726815
C           2.27087821545018   -9.74887986039106    0.81989084193757
C           2.54769721171664   -9.34373917456112    2.13696895133517
C           2.56194565257347  -10.07127647433664    3.32168224480297
C           2.33251405389810  -11.54189675520784    3.43007789144958
C           3.26672304224271  -12.25105047087404    4.42415548316932
N           4.60363622448755  -11.67436454526284    4.39518192118853
C           0.85993517517823  -11.83785533981885    3.78277119176728
N           0.01166188793036  -11.47854572652072    2.66229458500753
C           2.79515243242516   -9.12249851868837    4.38313775705896
C           2.78087386128892   -9.25578342416159    5.72101030569456
C           3.04962639717284   -8.09941357896143    6.62946008140293
C           3.30395339285262   -6.80267469088207    5.93547641539870
C           3.25196770445540   -6.67253620483865    4.59833083569177
C           2.98705613491700   -7.79534676885159    3.77552618832710
C           2.81830795793468   -7.93876651660963    2.41612559390178
C           2.83021667496070   -7.01399752869295    1.34351087284557
C           2.54852949969757   -7.44513181460351    0.09078875275640
C           4.17116961243905   -8.56377995647818    7.52012930038166
C           5.40941003175829   -8.06478162452620    7.53422803735989
C           6.45181823505050   -8.61040667468032    8.35921261017095
S           7.57361328576120   -7.59585788030287    9.16529929761970
C           8.30704013640427   -8.91332077766197   10.04322972681764
C           7.73633604950133  -10.13871908547510    9.63602826284037
C           6.68604044273107   -9.95448555591948    8.68134843453623
C           6.04379242219954  -11.07370588768606    8.13303041529254
C           6.39289529701088  -12.34589731948382    8.52022730284963
C           5.54024371463454  -13.46002247551905    7.98049436781489
F           4.35206101796804  -13.00741825276661    7.53927352951368
F           6.08355671774400  -14.10068100919727    6.92118549128772
F           5.24298207873241  -14.39905765073095    8.88703155794954
C           7.47918630593772  -12.54780478227725    9.42457975710326
O           7.96838718988123  -13.73287365335508    9.84477599431641
C           8.09673374145205  -14.84528957300115    8.97492244088953
C           8.11505955371596  -11.44364764811360    9.96604159092149
C           9.27172163197689   -8.58156898208948   11.00863669253959
C           9.78274255360131   -9.39302102965888   11.98372065793422
C          10.71955058652535   -8.91477926866386   12.91449477567085
C          11.25168069056446   -9.66168528167759   13.93688291146772
C          12.18447661941326   -9.21173678610795   14.94772573449391
C          12.72641581420707   -7.95854077049676   15.08172291791778
C          13.63330950445573   -7.59195023076215   16.09837940787027
N          14.37348333376443   -7.22558917682153   16.89565622632277
C          12.46841123607562   -6.85726622335907   14.23942625317011
N          12.31393147732278   -5.91343524047854   13.60344986132887
C          12.45437096723774  -10.34409496344548   15.83375595114837
C          11.72353488149927  -11.45731147173730   15.38510019731735
C          10.94747554217893  -11.08906776944469   14.18109150218086
O          10.22636563990356  -11.82536372131193   13.53967883663982
C          11.77742465599342  -12.67452232313832   16.03195849026750
C          12.58120662286185  -12.78630689496327   17.15956376335681
C          13.31261565845540  -11.68390319777868   17.61441105115499
C          13.25580646373478  -10.45911770663781   16.95768046711844
Cl         14.30211402163746  -11.83397888160785   19.01016988037537
Cl         12.67388851377572  -14.28310993969626   17.99604768291092
H          -2.13289676376263  -16.92918953341563   -2.66528016940225
H          -3.78426105538245  -17.22405186036093   -7.34968498777506
H          -0.90427045467230  -12.51345294059388   -6.97544099771492
H           0.05596134299988  -10.83444893718158   -7.69818998032516
H           3.90423529735744   -5.87055322481978   -6.22040737182044
H           4.24298841923622   -7.29047113111899   -5.19957613469315
H           2.81062281137184   -6.26769041460792   -4.87177490913532
H           2.56360262824066   -8.49368111434473   -4.10983495987259
H           1.34286443872926  -11.15758778617290   -1.26762203028130
H           1.92983312072118   -8.32250162717552   -2.24668126335595
H           2.04672600381154  -10.78612148944640    0.62922471256328
H           2.50537882083816  -11.97134555326574    2.43817349087391
H           3.25586299755564  -13.32674715053179    4.18224301652458
H           2.88943901446974  -12.15263275256617    5.44517299240770
H           4.95872837336749  -11.67768392142412    3.44394558597646
H           5.23124708511060  -12.24453992048718    4.95245167770894
H           0.60460831806046  -11.31353605454434    4.71946823161536
H           0.74778909756566  -12.91237238416542    3.95261557583743
H           0.03812285882747  -10.47596946725251    2.50720688477192
H          -0.94993639086653  -11.74443998734895    2.83973254375981
H           2.59553336554099  -10.20433390558297    6.20088275086190
H           2.16520676289645   -7.97255066375636    7.27652546159243
H           3.49923107798301   -5.95494290285950    6.57492378236488
H           3.40958390336822   -5.71067001004121    4.13211522792898
H           3.04952008465954   -5.97440066172628    1.53788737173292
H           2.53969714826291   -6.74353097439786   -0.73153064424831
H           3.91699203796079   -9.39014878982820    8.16935929636240
H           5.65459974532580   -7.18465589829551    6.95604747497986
H           5.28174743295589  -10.92786618541247    7.38399617218363
H           8.97609720412268  -15.38487093240915    9.32699310551981
H           8.25899138507397  -14.53465162379631    7.94118986577338
H           7.23398644165525  -15.51089022638330    9.03520747870919
H           8.94041895754505  -11.64283330770419   10.62721303681177
H           9.59949340793781   -7.54730295027350   10.99445696970106
H           9.44801379553133  -10.41011340464797   12.09085601001094
H          11.02735134702544   -7.88238250780511   12.81069684060911
H          11.20718631513104  -13.51521210782032   15.66956880507908
H          13.83406742975453   -9.63379437014816   17.33901055921405
