108
 SCF done       -208.695286359566          0.000575639108
C          -0.23423613644801  -13.78145295475804    0.54927558194413
C          -0.97357453245645  -13.92492695813011    1.69144599795324
C          -2.15363998630543  -14.69619241767749    1.77526977667271
N          -3.12009628915970  -15.30060976214726    1.90559372606882
C          -0.64546841084644  -13.37750825347478    2.95239360523447
N          -0.43500160323279  -13.00433147482397    4.01695330881326
C          -0.48618880690069  -14.45402512517436   -0.72047199531942
C           0.58286790317854  -14.19087509390600   -1.59469035222632
C           0.62497080965210  -14.71313709167915   -2.87179964718277
C          -0.42657836140351  -15.51890620381639   -3.28922857746906
C          -1.49817808802313  -15.78328030439210   -2.42622845713039
C          -1.53595547695781  -15.25550666805914   -1.14071860149568
Cl         -2.79366795053610  -16.77573274045431   -2.95693847795967
Cl         -0.41155582771180  -16.19116837098076   -4.86768632644686
C           1.57008930050153  -13.30996748232427   -0.93514245618102
O           2.59620820559440  -12.89172550189449   -1.41846442102793
C           0.99555404601017  -13.01620961594166    0.40542111551899
C           1.43278062046741  -12.07249208283337    1.28377260610522
C           2.64899176894022  -11.34568519844220    1.29796703388850
C           3.97286156206475  -11.66658556132439    0.74564585153217
N           4.90384998494593  -10.81946216142051    1.07891120098542
C           4.29722764424200   -9.87671939981500    1.85142691357075
C           2.87121293987779  -10.17183853640281    1.99373561539395
C           2.23318180395861   -9.20360736211004    2.84965225776532
S           0.64010199707052   -9.20466063238671    3.26624609835017
C           3.30585059779404   -8.33019039748031    3.25991175373857
C           4.56520601121664   -8.77685610149027    2.63070210117314
N           5.61304387287548   -8.02407515132599    3.05909886524881
C           5.11170247566106   -7.19112155745926    3.92536691965990
C           3.66547478243380   -7.31505571565477    4.12385580583132
C           2.89051202860848   -6.50848979508307    5.02421065752065
C           3.49457394149606   -5.92373985698948    6.12608756253812
C           2.72623368770913   -5.18402468125645    7.03733129855988
C           3.06331272606629   -4.55754129939001    8.24350458943386
C           4.38676141170602   -4.51887979349224    8.91813172899769
C           4.82817155622717   -5.94102541878634    9.32102201922685
N           3.85017866012015   -6.50343330576614   10.23450504672231
C           5.45241171313836   -3.80324772214397    8.06076404972163
N           5.31531907796029   -2.37476073472368    8.26205955020986
C           1.85092466711303   -3.97869974239022    8.76298687439393
C           1.60201861925712   -3.31557907520687    9.91095837686469
C           0.25452320616898   -2.75795751539613   10.19951730362032
C          -0.81579429060504   -3.16708504680945    9.24107467888672
C          -0.55438286569413   -3.85188552535076    8.10766140089176
C           0.76268873171925   -4.27082401058674    7.82220172619576
C           1.30626778239916   -5.01016374931937    6.78148854776573
C           0.72364441477915   -5.58492467308823    5.63399452144799
C           1.49565530229928   -6.32003419892151    4.78838910145957
C           0.39069467975875   -1.26101493505116   10.03953406300895
C          -0.01328291657815   -0.34243201937083   10.92344908487857
C           0.19465788006742    1.05885241586485   10.71527781153199
C          -0.49928705415746    2.12865787934900   11.42071192879052
N          -0.12907851051779    3.33449323003315   11.07480760707973
C           0.83374549297020    3.16518591810795   10.13534627675905
C           1.05015997830640    1.73043028685674    9.86361891720490
C           2.13833607733949    1.57638044317872    8.93983115730341
S           2.90854982709142    0.19238019736778    8.45886739717825
C           2.53871922190872    2.91528537611510    8.61986028940553
C           1.74294373072331    3.88151695011996    9.38572760251200
N           2.22062326016103    5.14044646979737    9.20569605198565
C           3.27273037714537    5.01741173511441    8.44083380331935
C           3.55531389093075    3.64621069986159    8.02944766381772
C           4.69146368841752    3.15484948205948    7.33410138045977
C           4.66544819264391    1.98784500748110    6.63209063453428
C           5.77432059145025    1.15266339470281    6.21795880182912
C           7.10757386034119    1.39883807519882    6.42073328823234
C           8.13699579940317    0.49607294258676    6.08252265085529
N           9.01020389839434   -0.20998747794761    5.84460432939652
C           7.63022811085887    2.57870173515733    6.99055414682188
N           8.12138812374551    3.51251333838991    7.44257164079575
C           5.21133479048475   -0.05738221591192    5.62392673723201
C           3.81062525356965    0.05097115645381    5.58500311649402
C           3.40005126054784    1.36860572345655    6.12408489193226
O           2.32903424967881    1.91353212022975    5.97647077059056
C           3.01373105383720   -0.95460503442615    5.07774179981503
C           3.62643184652745   -2.11131593737818    4.61668286502069
C           5.01953809879880   -2.23162810638109    4.65526753604381
C           5.82086168262397   -1.21032674993855    5.14863853046706
Cl          5.76367682243943   -3.66713540056908    4.06959504845630
Cl          2.66940565984399   -3.39262357466896    3.98734871703727
H           1.45605667306533  -14.49969344711666   -3.52541096490107
H          -2.37848901339545  -15.47692537994843   -0.50632002858718
H           0.76581873712588  -11.79802643829569    2.09546017734853
H           4.20213721133850  -12.51579898116294    0.13045802842968
H           5.74617490107762   -6.46167548151335    4.39685352788924
H           4.54775071003951   -6.07623977687641    6.30153051031118
H           4.29655065917483   -3.93175414323259    9.83698966290387
H           5.84336959989731   -5.87928973098965    9.74750111145632
H           4.86799529887472   -6.58713699695214    8.44263504403414
H           3.86851977920596   -6.00960961440041   11.12068319459560
H           4.05249199668777   -7.47902781496839   10.41859099646336
H           5.35835026936587   -4.11013069291723    7.00937651322763
H           6.44769831676819   -4.08752864674555    8.41297696508078
H           4.43766367498067   -2.03466676605195    7.88447954941491
H           6.07284186654294   -1.86957891764882    7.81891269193063
H           2.37953445331278   -3.09762800284475   10.62866731312911
H          -0.04332497491451   -2.97913906077768   11.23061048764427
H          -1.81491171787935   -2.83538434438643    9.47774089228501
H          -1.34964780973688   -4.10879799640085    7.42350112056293
H          -0.32795341907518   -5.44275583021733    5.43615480433844
H           1.06360054262727   -6.76631537536389    3.90762274915901
H           0.83805180248916   -0.95456278198068    9.10646012317202
H          -0.51726750475281   -0.62622559666791   11.83867837769927
H          -1.27270360727179    1.98524432033569   12.15538654628646
H           3.84080091568134    5.88208064872742    8.14529681795905
H           5.61205287528337    3.71024444706304    7.45559348041155
H           1.94158924303666   -0.84353220790117    5.04864704596177
H           6.89160437772404   -1.33538649306933    5.14614086311366
