122
 SCF done       -249.434432006949          0.000940099550
C          -4.05617056899907    2.50662217236081    4.69235909780459
C          -4.00038568137814    2.24124490353057    3.35541443057212
C          -5.13460673791426    1.99804196738661    2.54695421486704
N          -6.01214788565067    1.78010851549490    1.84147427640781
C          -2.81556903186000    2.17328171835707    2.58674074725210
N          -1.90487035128952    2.12176362334735    1.89130551239665
C          -5.26285588001656    2.61516133038452    5.50232346952289
C          -4.90936675515483    2.88519879163938    6.83858192280695
C          -5.86301332203045    3.05155025859879    7.82416983088407
C          -7.20222434329706    2.94950239504931    7.47203015888079
C          -7.56398558758606    2.68104233813566    6.14371755882405
C          -6.60187199489645    2.51274585335209    5.15521710313755
Cl         -9.22115541956535    2.55758952595031    5.72284953691283
Cl         -8.41652004817438    3.15377164766623    8.66436623480254
C          -3.44494510838689    2.95305798825034    6.96471160151886
O          -2.79260451328369    3.09965004098445    7.97214994128350
C          -2.92198574690673    2.75966470034060    5.57711380059186
C          -1.61909758869445    2.83083473148083    5.25922434706702
C          -0.56319173057695    3.15807841251162    6.20825158859131
C           0.49175432197252    2.27519024889461    6.41228200529385
C           0.69318157958945    0.93397768988003    5.83172394852288
O          -0.02138800452052    0.31196329441971    5.08805381501312
N           1.92095514753102    0.48584983589200    6.33423270386884
C           2.50071854311970    1.40140137807049    7.21958214109779
O           3.54578161275909    1.26385646359610    7.79793201670916
C           1.55659251308776    2.54659527689410    7.27709846538073
C           1.61140713340602    3.71594463880678    8.00977009804530
C           0.56008519788796    4.60909095581750    7.81849705945908
C          -0.49071818184297    4.35760241395615    6.93411997205859
C          -1.47504072956772    5.45054506213608    6.83525610889569
O          -2.42486168894104    5.53089128579152    6.11060767904291
S          -1.02602349092231    6.74283549998345    7.99271557433009
C           0.46464386704497    5.89509296036792    8.53481648344454
O           1.22191895981280    6.33944440079768    9.34244998270820
C           2.43034509402683   -0.75225374568100    5.94603173134431
C           3.68139540531397   -1.17183740976720    6.15532829141199
C           4.20077220438873   -2.44734363763008    5.70429213819077
C           5.56093727674511   -2.58285898562228    5.52397546538564
C           6.09089167322095   -3.78629407047533    5.02574157620541
C           7.39998551917308   -4.14939241726777    4.71014911246036
C           8.61430989457184   -3.33400976097152    4.97783698090056
C           9.20092407943250   -3.71437096420620    6.36126335289926
N           9.52586880504985   -5.12891284614479    6.41817790769027
C           9.69967951978491   -3.42291842607403    3.88953747333882
N          10.38230387238260   -2.14102962729805    3.80706452581623
C           7.34505306515754   -5.50583197545100    4.21734403636443
C           8.30272104999879   -6.32143703314150    3.73503267862145
C           7.99677559522005   -7.70702376455670    3.29909250411663
C           6.58275727331323   -8.14279538675044    3.52110635243056
C           5.62784998275386   -7.29689586243341    3.95720784743166
C           5.95292209238857   -5.96321240238760    4.29154658714967
C           5.19465520906598   -4.89625519348146    4.75669913039932
C           3.81277788155214   -4.74564220578862    4.98806506801846
C           3.33581784677459   -3.55172311098900    5.43737324531324
C           8.96810914490365   -8.71092840261540    3.86518305219159
C           9.84195773122289   -8.42354929600025    4.82216454077452
C          10.87804848553408   -9.33161230687750    5.29511774189529
C          12.20151116550204   -8.88385481486587    5.30774738450906
C          12.73218415238952   -7.57927159730164    4.87315997926429
O          12.13890612650517   -6.63155078711440    4.41884642527305
N          14.11905068990109   -7.65357820947098    5.07391858013359
C          14.51715324175435   -8.91592397298359    5.57674269663843
O          15.65414932277130   -9.22966470654795    5.79539050789548
C          13.27116711281252   -9.68961131254441    5.72144291072164
C          13.07445852546184  -10.98733165868331    6.15536292526035
C          11.76038902254580  -11.44035618535099    6.16626225596076
C          10.68182552323787  -10.64530216016950    5.74960183322499
C           9.36969768541670  -11.29286382191470    5.90021589429859
O           8.28153580133558  -10.84896934551748    5.67156565367017
S           9.60918647517857  -12.95855431294846    6.54230360798030
C          11.39544413794218  -12.78889678793540    6.62843877439485
O          12.12453637906068  -13.65521391259142    7.00936106074442
C          15.05455656728117   -6.66873721913446    4.85192296667663
C          14.81662387547090   -5.48343732098327    4.25911869649695
C          15.81130894867777   -4.49157215281855    4.02346691205209
C          16.92063813554714   -4.21864739958902    4.76683432153976
C          17.94709879346554   -3.24789319915745    4.41760610041161
C          18.16845380391561   -2.70644499217661    3.18042325641718
C          19.19804946420422   -1.78372960927498    2.89334979404093
N          20.01079636999047   -1.03068192004857    2.59547966870436
C          17.42395188172662   -3.00351159865810    2.01782513686220
N          16.87887031156911   -3.20296661264600    1.02736869571523
C          18.75995837365669   -3.01418690324691    5.60609018953573
C          18.29508638925484   -3.84119922105649    6.64298295771650
C          17.15643115324027   -4.65550617346678    6.16927292778702
O          16.52498091248385   -5.45068475109093    6.82804405924598
C          18.87919830502070   -3.83978898511993    7.89370759736683
C          19.95767771441962   -2.99334923513434    8.11631913870009
C          20.42649972486814   -2.16360115136192    7.08962997107719
C          19.83366550383764   -2.16744879484694    5.83206568285900
Cl         21.75634691912281   -1.11837590205878    7.37998249868116
Cl         20.71731102162937   -2.96636677539678    9.65468760848332
H          -5.57022909165362    3.26012470100604    8.84115447217769
H          -6.91771666077785    2.30986258828402    4.14494052495284
H          -1.27826209713348    2.60545471009289    4.25709431808910
H           2.41502996126829    3.93602725387627    8.69434417562985
H           1.69625829381059   -1.32709066667864    5.39752660247953
H           4.38568730652250   -0.52184708033093    6.65303149599420
H           6.21660774065381   -1.74991107151260    5.73166133331996
H           8.31822179137286   -2.28165142284809    5.03410725189108
H           8.48082713301829   -3.40644034804977    7.13581711629102
H          10.12273050960488   -3.14829734065185    6.51352844361640
H           8.67867126840751   -5.67785290148743    6.52100924897695
H          10.12630099580942   -5.32348235909670    7.21091325752328
H           9.22790028698891   -3.60004486497357    2.91981041525932
H          10.37518129383215   -4.25871428301185    4.12074365394790
H          10.93049889176175   -1.97409134658368    4.64399002511319
H          11.01313148705981   -2.12131892965255    3.01443904047044
H           9.32841646524520   -6.00538628750130    3.63832132862024
H           8.16013533906832   -7.72706191762190    2.20543246604227
H           6.35933917241877   -9.17417324718320    3.29919015204064
H           4.60939779375696   -7.63516969689251    4.07859757668113
H           3.14498682617165   -5.57360091113159    4.80227850183897
H           2.27987918645619   -3.43361070670817    5.62291787277395
H           8.92271326940815   -9.69758605120854    3.42682562736514
H           9.90741049139988   -7.42220443560718    5.22783456670761
H          13.88645056384312  -11.62068700102539    6.47501200187273
H          16.04384800282938   -6.97251570855014    5.16600378036055
H          13.83243141538182   -5.27576766818395    3.86472379788717
H          15.61834455432081   -3.86006233199911    3.16407335493075
H          18.50757147212880   -4.48488277361338    8.67414445044117
H          20.21870961898650   -1.51218788638951    5.06806970783885
