96
 SCF done       -219.469367603144          0.000616295735
C           0.45056842894664   -0.41409399496372   -4.12313627295442
C           0.79818183764732    0.45942594299765   -5.11109131147443
C           0.05809602495806    1.61805228034888   -5.44194490735421
N          -0.49995544298990    2.56873700950940   -5.75711240845237
C           1.95287472919262    0.34600607863703   -5.91924913272498
N           2.88098811924924    0.33061783135646   -6.59286601200337
C          -0.68949460208508   -0.29565285399345   -3.22365880386350
C          -0.65232383296207   -1.34111915604533   -2.28047449185030
C          -1.61340590724982   -1.46617262662344   -1.29541820048863
C          -2.63714849295852   -0.52958542149711   -1.24756901253589
C          -2.68420953552246    0.51350770778507   -2.18491959866729
C          -1.71496103893123    0.63682700842665   -3.17355991696260
Cl         -3.95681832264736    1.65925075716234   -2.11762020992949
Cl         -3.84847428319136   -0.64993849607862   -0.04090163117704
C           0.50872377823980   -2.20720475494390   -2.53597844983220
O           0.83506128182652   -3.20434340664678   -1.93392465949208
C           1.18460649573912   -1.61526919226785   -3.73232848661062
C           2.23784700796735   -2.18075954070534   -4.34502310107326
C           2.91734556599700   -3.36419164257170   -3.83631350130304
C           3.52420658972823   -3.41424336085217   -2.58265552170533
C           3.60316616559347   -2.37572305848663   -1.52459122783565
O           3.17785290487441   -1.25041317817837   -1.52473951361239
N           4.31098999658577   -2.96217064276557   -0.47129606651741
C           4.70103134176177   -4.27291569472391   -0.75550534981222
O           5.32276100347563   -5.00748981154654   -0.03797673934094
C           4.18837008195550   -4.55043307458553   -2.12579278145822
C           4.29732594883112   -5.70349298523477   -2.88449161151906
C           3.69999182563520   -5.66435882446371   -4.13852075151389
C           3.02967935582066   -4.53275777543283   -4.59943556659326
C           2.40323042659926   -4.68112655975467   -5.92501767245079
O           1.73497619867211   -3.87405725716188   -6.50068351444349
S           2.78560196140727   -6.31053574930955   -6.56576269029569
C           3.70151411084593   -6.79664704333901   -5.09029790842605
O           4.20915158718990   -7.86502922905084   -4.95365584757161
C           4.56418252040268   -2.24068895111080    0.69689109401548
C           5.31176921766173   -2.66886535630311    1.71712345703598
C           5.59444354467158   -1.91087785154674    2.92260332656198
C           6.66767222866709   -2.35033367193846    3.72745771374255
C           7.05087601980665   -1.70506958398105    4.87834908230274
C           6.31478137741341   -0.58488514341003    5.25095859399365
C           5.22615218652966   -0.15202764474759    4.45764620349085
C           4.84961609947489   -0.79286436568550    3.29618973939592
O           4.69033938027112    0.93341895746755    5.06380807663656
C           5.45132135327972    1.10887793459356    6.17082399907602
N           6.41019438553375    0.25251642455508    6.32560268655721
C           5.19805260134602    2.22485806899530    7.06661076314478
C           5.00430501861993    3.52674488822293    6.60240937233035
C           4.98221203709485    4.05790488889018    5.21534699170629
O           5.13477956138335    3.49782978337368    4.16855834745786
N           4.74500015674263    5.44286776499379    5.34744272660518
C           4.65231471809316    5.84378271364417    6.68369089125444
O           4.46363746298336    6.95923726398631    7.08288502560611
C           4.83926124910045    4.60136376382472    7.47895481731753
C           4.88982828672749    4.45128666808792    8.85186211019589
C           5.07220855198182    3.15426040495939    9.31905970810561
C           5.19553999467254    2.06315137150989    8.46188665401514
C           5.21961201083500    0.75455700733925    9.15749800028972
O           5.10618655763554   -0.33689721523978    8.69927791156757
S           5.32793395035892    1.05238820731243   10.93482467037614
C           5.14850264525782    2.82442350543069   10.76223599087317
O           5.10321443185173    3.58650900089094   11.67786088505291
C           4.68608693299397    6.25354137377344    4.22764032916685
C           4.29309150540286    7.53819100698201    4.22921446874409
C           4.24009097605866    8.36989453100794    3.06968986304532
C           5.07270265248201    8.35809540736145    1.99465418699952
C           4.95587973545707    9.23587412119444    0.83715096613692
C           3.81967945137973    9.86863605570328    0.41624218995993
C           3.75281544415227   10.69438425205938   -0.72757439227465
N           3.64109827451789   11.38094192422034   -1.63964857771472
C           2.55748850861537    9.75017853051549    1.03999962837194
N           1.49953992813727    9.67946035326400    1.47870071391792
C           6.24441158178703    9.24168312946528    0.15609092748200
C           7.09912240961379    8.32660674598511    0.79572824773019
C           6.39920018851267    7.68443561810151    1.92780529033944
O           6.84956346483297    6.83197057463145    2.65859814481596
C           8.39187166311695    8.11315169292429    0.36026282631471
C           8.84484892571687    8.83227732615762   -0.73829765289596
C           8.00187761968890    9.75129101093717   -1.37753591482891
C           6.69978386348502    9.96081533043461   -0.93764259235177
Cl          8.57866819333315   10.63980411083508   -2.72678334660389
Cl         10.44359104944636    8.59342694907253   -1.31297552194466
H          -1.56625290284648   -2.27424892070736   -0.58244833345087
H          -1.78440744234274    1.44959988075990   -3.87799440040396
H           2.62020582051770   -1.78722965737339   -5.27782645135617
H           4.80708913532527   -6.58373607823280   -2.52639877643983
H           4.09824339192233   -1.26542280975972    0.66690700564669
H           5.77890725869914   -3.64042106518607    1.65945245251290
H           7.21079802648976   -3.22833503790143    3.41107276064104
H           7.87416209410707   -2.04738352309855    5.48244707662261
H           4.00994381955676   -0.44266806317394    2.72032767621881
H           4.78990324840949    5.28519392352157    9.52859791994342
H           4.94381557035115    5.72045405896119    3.32332230557762
H           3.93950092552135    7.98846799630351    5.14595025415427
H           3.47688294527448    9.13880136739705    3.10588683523411
H           9.03055246072270    7.40350513122711    0.86206714683723
H           6.08008442089923   10.67857463338924   -1.44986922285275
