112
 SCF done       -209.924915417834          0.000580080183
C          -6.86932798063431    0.11941985524002    3.70581861834847
C          -7.81891828963849    0.49683079405551    2.78728830675560
C          -8.97961092552887    1.22415853537531    3.10984391962023
N          -9.95224930404885    1.79443795454443    3.32668410258375
C          -7.66606784538285    0.28268968052296    1.40232106979710
N          -7.53757069066254    0.17586653241970    0.26592791832213
C          -6.78375587110408    0.60542650638250    5.08181424439879
C          -5.46470817049747    0.43088728347897    5.53882872095677
C          -5.07610838003952    0.83984408034579    6.79722397385828
C          -6.02885345893035    1.42484532900451    7.62354094849699
C          -7.34369169739766    1.59140743049305    7.17937883616419
C          -7.73011853343151    1.18913755802412    5.90464224606759
Cl         -8.51206116705047    2.30423321483198    8.21761061600512
Cl         -5.58297522509995    1.94292306463999    9.20049018139985
C          -4.66325846455818   -0.23604305174858    4.48579826208335
O          -3.48220343718370   -0.50062869474425    4.50965256826426
C          -5.63510299663433   -0.56499097221205    3.41589833227386
C          -5.27944350202074   -1.44889850771831    2.43185935290352
C          -6.08920603356248   -2.25936052194375    1.60500418279533
C          -5.55827058700182   -2.88768627150094    0.49508243434584
C          -6.26228033790314   -3.71828320920809   -0.36653744428654
C          -7.70487889080595   -3.94508913733924   -0.18823430599865
C          -8.42007693214342   -3.48301439939573    0.85887791004582
S          -7.75445503850330   -2.54324160291747    2.12595533781193
C          -8.10229715355455   -4.72519032746752   -1.30546037185060
C          -6.99233184477062   -4.98276443434809   -2.12052404920597
C          -7.32932060480610   -5.80728723190945   -3.22114026650743
C          -8.64750155609948   -6.12808269223870   -3.22069078442597
S          -9.53721938693487   -5.46042275061458   -1.88935896404064
C          -5.83621461017571   -4.37221994073600   -1.53928541354106
C          -4.49820041044128   -4.46167135011346   -2.06656608411469
C          -4.28939377482089   -4.48270378242389   -3.42719494862477
C          -2.98230257014412   -4.57583171834668   -3.94288165890220
C          -2.52035412240334   -4.63456286193307   -5.24934232363650
C          -3.33742933462458   -4.53504055247382   -6.49139306052452
C          -2.88443683816917   -3.33669958844198   -7.35462964700046
N          -4.00600002980192   -2.83160827406374   -8.11276285170985
C          -3.32131608537188   -5.85616220820558   -7.27936979989563
N          -4.21734642789067   -5.78406054797441   -8.42206037084052
C          -1.07990974984104   -4.73982227469492   -5.17498066244463
C          -0.14048273480081   -4.86768609470199   -6.12875478007196
C           1.31055782007761   -4.93301007694704   -5.80305308155757
C           1.62666989459977   -4.85851106946850   -4.33682550627355
C           0.67296032972831   -4.76765060534877   -3.39393219415327
C          -0.69468886823928   -4.71462911886140   -3.75511609543197
C          -1.85671786978485   -4.63822149948602   -3.01801141857042
C          -2.10390614051470   -4.63620005789657   -1.62472624271011
C          -3.37886260053270   -4.55587668558356   -1.17099504736085
C           2.10853658168507   -3.87417791939089   -6.51629229976027
C           1.58391152628198   -2.85245226614018   -7.19757270425604
C           2.33962436958987   -1.83625082262001   -7.88620747770916
C           1.72965657186340   -0.98580194412773   -8.77512337872830
C           2.37888719576086    0.02801251533309   -9.48014942214041
C           3.80713674350326    0.28043639034966   -9.30645582580306
C           4.60864443498856   -0.45361627207007   -8.49859974479658
S           4.05258409982914   -1.76223697431153   -7.54718362197892
C           4.10036183051545    1.39102432494280  -10.14322345917662
C           2.95122100063722    1.79680802123952  -10.82535344757805
C           3.17509591150619    2.97676586943344  -11.56709374001830
C           4.46506340570691    3.39424321018861  -11.46737812150144
S           5.45347451351865    2.39943584960240  -10.45866967401709
C           1.86693068860518    0.91727883277778  -10.45639150880424
C           0.53635645142925    0.86000993831787  -10.90010659133938
C          -0.01617505752218    1.30017204801882  -12.07808798562940
C          -1.43199529740343    1.33325410242650  -12.37035108600690
C          -2.45777822766862    0.82332603654249  -11.61125124044501
C          -3.82035629894926    0.90375382827912  -11.96674470747842
N          -4.94597254337742    0.93283683621002  -12.19118354062168
C          -2.31435355638812    0.09168334401208  -10.41802955337202
N          -2.28867626758365   -0.54568064398098   -9.46040539973632
C          -1.59635356178476    1.97226248386760  -13.67592691989059
C          -0.32552421178355    2.18873912142875  -14.23428775763542
C           0.71554563547706    1.71328590275499  -13.29075062045139
O           1.90031899719271    1.60470248373304  -13.52647355063092
C          -0.16513991786303    2.75395754884635  -15.48130190307706
C          -1.30325981324785    3.13274887360903  -16.18392434896699
C          -2.57153802652811    2.93203839454165  -15.63140925218775
C          -2.72872767850053    2.34759117760030  -14.37891279763705
Cl         -3.97059829512759    3.40910831804524  -16.50810165765447
Cl         -1.14584673874221    3.85200939247143  -17.73607052856654
H          -4.05874402202464    0.70914678966687    7.13040817197298
H          -8.75181781413326    1.33014028523425    5.59109437383702
H          -4.20991276373662   -1.61538046564135    2.34398752894574
H          -4.52782048641958   -2.65548459243321    0.26202585643851
H          -9.47290016586785   -3.68445341873016    0.97971435637432
H          -6.63668925987361   -6.15743896832138   -3.96441893177860
H          -9.17671683239299   -6.73266465144890   -3.93121338452134
H          -5.12508593178448   -4.37917579779716   -4.10203241413929
H          -4.37485206828838   -4.32796383032541   -6.21040814052853
H          -2.03371721250618   -3.64438758324876   -7.98470878544863
H          -2.54167919323637   -2.53530048383638   -6.69234216776419
H          -4.29036687060029   -3.52765595520876   -8.79479238049201
H          -3.74151189147245   -1.98248648514560   -8.60154268953809
H          -3.57252172009442   -6.67521416413627   -6.58136262580770
H          -2.31602329593439   -6.05051785418317   -7.66260814436253
H          -5.17229830416830   -5.64579277743923   -8.10637985103497
H          -4.18682321215149   -6.64940840728794   -8.95062250943483
H          -0.39187813004295   -4.93682112800041   -7.17704179653123
H           1.68400134096826   -5.90416239218699   -6.17337527488599
H           2.67373624422175   -4.88420652936419   -4.07663987110019
H           0.93926582097713   -4.72870937135007   -2.34754501369811
H          -1.27531441684234   -4.71767913390489   -0.93645294671400
H          -3.58082326091545   -4.61198936941145   -0.11217893390793
H           3.18224788251875   -3.97588786038873   -6.42651822268553
H           0.51049066428726   -2.75377558088649   -7.28724196612981
H           0.66601688071841   -1.12118824785696   -8.92103613078186
H           5.66544262293364   -0.26233511807530   -8.40087100198524
H           2.43524838953084    3.50765800066064  -12.13413209510807
H           4.91349800418480    4.24954667536170  -11.93375009514603
H          -0.14114931186498    0.37822649357140  -10.20727074646920
H           0.81881221959605    2.90075881700265  -15.89795030617265
H          -3.72261994178347    2.20551939580610  -13.98764470434863
