84
 SCF done       -184.433323389570          0.000719542671
C           1.00300670881568   -0.65419494144227    5.54050185928225
C           1.21630778205829    0.64446677692184    5.16170515455566
C           1.84887857420915    1.60311956494945    5.97688741946119
N           2.39874458449450    2.40701169563525    6.58597123569564
C           0.85332392343689    1.19147493965740    3.91182197680705
N           0.56158785416440    1.69604455434219    2.92367183084508
C           1.32123418238331   -1.22540258367921    6.84632764529672
C           0.93589692937707   -2.57702467586827    6.87213793444064
C           1.14373873233881   -3.37381708505135    7.98011255861620
C           1.74451051407716   -2.80792785580029    9.09570622191766
C           2.08776878257127   -1.45144370949113    9.09780644105483
C           1.88716045688521   -0.65647855371342    7.97756804740789
Cl          2.74566509515287   -0.73629271251880   10.52024284565192
Cl          2.05488893990571   -3.77378741923400   10.48576864816715
C           0.25210257025576   -2.91482393690285    5.60372821814719
O          -0.51913733899691   -3.82969970756170    5.41540838011153
C           0.47390860331011   -1.72730978877622    4.71658382053661
C           0.20164950688903   -1.71293798930198    3.38552506975524
C          -0.00598132953531   -2.89859183265698    2.62386889779357
C          -0.78833650722597   -3.04535226611282    1.38868456840180
N          -0.77095882736123   -4.24423047663940    0.88443314803500
C           0.03799393330066   -4.98166745055657    1.69781672429450
C           0.53740311989878   -4.14778072080090    2.80679471682727
C           1.45753955070600   -4.89678519335255    3.61723394935815
S           2.43685264533619   -4.27194199718567    4.78504759491565
C           1.40389814461459   -6.22551491102328    3.07499442219804
C           0.55068218831398   -6.24263829489789    1.86726562443701
N           0.48007702654052   -7.50363802427970    1.35723184556382
C           1.17545958570830   -8.25976020961313    2.15358624039541
C           1.77980620780617   -7.53691311164847    3.28182426805392
C           2.49767300064079   -8.01779556424036    4.41000030706205
O           2.86342276432451   -7.07968411650446    5.29419872382855
C           3.44396728022846   -7.66456419417234    6.35665752868880
C           3.45319813493866   -9.03855520238747    6.16371243798066
C           2.85274514703182   -9.28015428422431    4.91182552317336
C           2.67587590457855  -10.59395874107013    4.25588592848677
O           2.48701366140333  -10.73256718150485    3.07894163331904
O           2.75193373957018  -11.65927162777099    5.06730188040265
C           3.89301086450376   -6.79618961283645    7.38699772143604
C           4.36897302190788   -7.16184156188612    8.60052313348019
C           4.78307995446965   -6.22636088685107    9.58515865208765
C           5.08437097674954   -6.60095573369220   10.97390736555849
N           5.42151504889543   -5.61027378353517   11.74291679895961
C           5.39501287572051   -4.50592911665747   10.94506997235589
C           4.98355316356030   -4.85870433134340    9.56834228104099
C           5.00016208212706   -3.67240134384731    8.74950693944048
S           4.66192739080832   -3.48724432576368    7.14668969995016
C           5.41506243543818   -2.62010942516081    9.64341460759165
C           5.64386346088705   -3.15958807394263   10.99053880389349
N           6.01169204940767   -2.16432119444740   11.84510628824016
C           6.04253988246965   -1.07503792485315   11.13731566915292
C           5.69001017289188   -1.26789833563930    9.71640380127622
C           5.57161602555324   -0.36052003117018    8.62948568495004
C           5.91846982597435    0.95118685100840    8.50695279990044
C           5.69105841870864    1.74918135011173    7.30400231011684
C           5.11725316240639    1.34552648892444    6.13097303036011
C           4.99650706893418    2.16328562596950    4.98198317823292
N           4.88068572815389    2.74149331853799    3.99845118115768
C           4.52848380433780    0.09603784458436    5.84415322664441
N           3.96735283716899   -0.84325261773448    5.49298237323285
C           6.19918068754783    3.09217356183718    7.55719835385039
C           6.75555616996795    3.13430127493707    8.84638274004574
C           6.63217538088711    1.81534619644945    9.49287123522717
O           7.06045853064328    1.51891757625623   10.58394122816776
C           7.31765705785295    4.28445850394978    9.36463157431065
C           7.31748817722940    5.42835803997797    8.57773878521513
C           6.75243088589548    5.40050368296122    7.29435460537144
C           6.19211496859939    4.23824657425820    6.77697020137948
Cl          6.74883711454746    6.82322140760084    6.33730943465256
Cl          8.00600166745014    6.87858524442605    9.17941694076590
H           0.85050724091854   -4.41158308045365    7.97425977037242
H           2.16552812238029    0.38343103249784    8.01950592531357
H           0.19012542375818   -0.78181620232120    2.83419885517943
H          -1.35678463988382   -2.25965981140812    0.92205872307004
H           1.28402203380698   -9.31444293545810    1.97393104246064
H           3.88344669756973   -9.75506827884707    6.83624539779808
H           2.87592638233838  -11.42418174295071    5.99583605864261
H           3.80802183721566   -5.74576462888057    7.14074059363179
H           4.42411168853646   -8.20585437386843    8.87963091133349
H           5.02741368364418   -7.60290933590198   11.36400192404183
H           6.29928193450229   -0.13580300658620   11.59064173219144
H           5.12637058737346   -0.82592327883270    7.75573106623492
H           7.74231257992161    4.28997361458169   10.35634757262963
H           5.76189376386485    4.25850561470424    5.78942853776039
