110
 SCF done       -207.813995443988          0.000497028441
C           4.64203810194460   -3.92887876246204   -1.12621121001646
C           3.61167163717180   -3.07577905583192   -0.84593902324770
C           2.40531031355574   -3.45520011033347   -0.22426143153161
N           1.41283153318394   -3.67166875436414    0.31046394386379
C           3.64066509210108   -1.69293919995318   -1.12098400225371
N           3.59664620244494   -0.56858849531304   -1.34692012740430
C           5.97739413350227   -3.52849087256925   -1.56173544069809
C           6.87273829348198   -4.59020258447276   -1.33494727273813
C           8.21605086710436   -4.48301167414440   -1.63370508750879
C           8.67727194516100   -3.29275459427008   -2.18248115377707
C           7.79067942002656   -2.23662064110755   -2.42335513746920
C           6.43986200635221   -2.34414197328576   -2.11126950644873
Cl          8.37182881895213   -0.77817207389368   -3.11910071535224
Cl         10.34125076433453   -3.12176183037227   -2.57085930408973
C           6.13590748970991   -5.75072673549337   -0.78914351432945
O           6.58392226597163   -6.81481648557325   -0.43390398766339
C           4.70386309085567   -5.34748291373392   -0.82974934782807
C           3.74636006961203   -6.29765492956702   -0.70468355938002
C           2.35304087800397   -6.24166290707273   -1.00007809398921
S           1.29208461350829   -6.99752809087433    0.16022100842106
C          -0.10983601882256   -6.52483243479655   -0.73506868253882
C           0.23778911346124   -5.88562662021382   -1.91591481143285
C           1.63024719753634   -5.72851226382384   -2.06171008860939
C           2.13261726247057   -5.12291665044389   -3.34170714870142
O           3.50147109270204   -4.79036696293551   -3.27255086590156
C           4.12261221672894   -4.59211353031676   -4.51819919592560
C           1.20218832257822   -3.93669919361812   -3.64429980433110
C          -0.18560613815337   -4.46317761942238   -3.98622945679034
C          -0.78074620840428   -5.41196193537488   -2.91968698379184
O          -1.48565710482273   -6.48381930513250   -3.52960771149063
C          -0.70793125887770   -7.54198749597268   -4.02792600398983
C          -1.40459658271701   -6.78506271877766   -0.22414282323741
S          -1.60066124756487   -7.47363446521785    1.41423962364763
C          -3.29117775637567   -7.42787678966151    1.15005258452378
C          -3.57414824873774   -6.91298933634228   -0.12375070163279
N          -2.52408990378315   -6.55931838049205   -0.85024950440827
C          -5.04632907589211   -6.90708401980813   -0.38218054711159
C          -5.56594109316117   -7.48403640101499    0.90146754557320
C          -4.50982179474756   -7.76000830538130    1.77873493461747
S          -5.04318812290026   -8.39451876216568    3.27840038950195
C          -6.70868321877435   -8.31904319465867    2.72553258859248
C          -6.80265306675062   -7.81505237517029    1.43482087457110
C          -7.77582919459939   -8.75235437247382    3.54606707128759
C          -7.65474064363980   -9.05514124762831    4.86281815170164
C          -8.72163199227801   -9.52448244733744    5.66750906284187
S         -10.23635277963118  -10.00052769071128    4.97110297956377
C         -10.88320602432470  -10.39095530637949    6.54440458764681
C          -9.95047232237255  -10.08878806224247    7.55408654749249
C          -8.72678419231371   -9.64846235369572    7.06196923269498
C          -7.54826096087207   -9.32944128592091    7.95370272382883
O          -6.30082609001190   -9.71451473928145    7.40734018109821
C          -6.11616818808204  -11.09382554040763    7.17958360941825
C          -7.79533664498235   -9.90384911449303    9.35482922771612
C          -9.17380761072938   -9.48834110553244    9.84475607910602
C         -10.25724198396827  -10.20585512345914    9.02899771025246
O         -11.56922486263692   -9.78505903525653    9.35976484571662
C         -11.88066438985971   -8.43583084236644    9.10139735050651
C         -12.10261293637335  -11.03031353592315    6.79061581625877
C         -13.10339967098434  -11.39994096244057    5.92412689835847
C         -14.28030426164085  -12.15390614314615    6.30202860273390
C         -14.47714416183556  -12.84367199268056    7.47067303902411
C         -15.65609239612023  -13.55546219208737    7.77471820777848
N         -16.59445376433636  -14.13996843751636    8.08408769141338
C         -13.52091063778113  -12.99853774285980    8.49752844531839
N         -12.78746773459195  -13.21941631276411    9.35333331803255
C         -15.19498447846323  -12.13723789840793    5.16150314265700
C         -14.56673210811247  -11.47703790265040    4.09104159817817
C         -13.22758082691645  -11.01434637115314    4.51581740540325
O         -12.42133262150884  -10.41778633217337    3.82559947477720
C         -15.18110572190166  -11.32956792840999    2.86510269291803
C         -16.45933482246466  -11.85004706016959    2.70284304132478
C         -17.09506186228703  -12.50221678145274    3.76382302179255
C         -16.46946518994882  -12.65252462792908    4.99731137241038
Cl        -18.67804102941612  -13.13490826639375    3.55153452127995
Cl        -17.25836415325939  -11.68933249847972    1.19059716015142
H           8.88886944418611   -5.30490616992553   -1.44627311356581
H           5.78364498530435   -1.51344416917607   -2.31347671729854
H           4.09804035196708   -7.24895893701183   -0.31219571114174
H           2.00564232939862   -5.87646326143425   -4.14240640051483
H           5.18486606466046   -4.47128077952333   -4.31124777824799
H           3.75352197492138   -3.69435826416970   -5.02488145252984
H           3.97648698121521   -5.45795954762093   -5.17474054389396
H           1.58887225331931   -3.35729869063472   -4.48387169019419
H           1.15985661233427   -3.28325544718715   -2.77071161476629
H          -0.13573175143468   -5.00709484436338   -4.93232168785965
H          -0.86690583905038   -3.62560148348056   -4.13379878600363
H          -1.57075032174523   -4.89604821180031   -2.36094799111316
H          -1.41129356667724   -8.23298560849250   -4.48854960080939
H          -0.16505062547078   -8.06148647020213   -3.22982582578178
H           0.01279835293236   -7.21263550662294   -4.78643767148942
H          -5.30168397994751   -7.51685225051859   -1.25038760778973
H          -5.42296466228510   -5.89913658330117   -0.56452791142712
H          -7.74507275942669   -7.69610406615670    0.93137313946564
H          -8.74592231523381   -8.82373312408688    3.06972720042790
H          -6.70019060180838   -8.92284608086289    5.35443478839233
H          -7.45478210265581   -8.23591004026877    8.02917146627942
H          -5.24136256017096  -11.17404417617499    6.53629343898619
H          -6.97805290812838  -11.53924124917048    6.67283204225729
H          -5.92274656068282  -11.63684721801571    8.10994469172905
H          -7.01865510335353   -9.53962434914802   10.02833357186274
H          -7.73905306868291  -10.99315066128279    9.32140791273473
H          -9.28391721571974   -8.40816888657512    9.73237370727196
H          -9.30386575277290   -9.73831596881213   10.89804202215951
H         -10.26436535251631  -11.27052390591708    9.30486224406260
H         -12.96531617968415   -8.36426775371038    9.16489708080728
H         -11.55797551746612   -8.12822718570956    8.10116092274512
H         -11.43941297064208   -7.76475285199431    9.84529213447061
H         -12.26305235685230  -11.26167780465805    7.83591334994252
H         -14.67988592375598  -10.82481808673535    2.05448364438140
H         -16.99033899855485  -13.16050766608214    5.79225268874546
