102
 SCF done       -226.567476103615          0.000553315434
C          -0.10294062972478  -10.31121723090842    1.07021337220288
C          -0.94753030563080   -9.65080478073280    0.22672129853078
C          -2.33870458636254   -9.89217872258779    0.14952379690053
N          -3.47090697028515  -10.04104313879049    0.04739918770018
C          -0.55357223397587   -8.65876867506518   -0.70069706489821
N          -0.30658106551831   -7.86470292698402   -1.49052038302980
C          -0.45923352026869  -11.38818467930696    1.98445202213112
C           0.70593915737759  -11.87986363197570    2.60512263350421
C           0.66311646590776  -12.92192466794856    3.51183192824250
C          -0.56896096185536  -13.48793902450046    3.81062288584321
C          -1.73578685127178  -13.00089459808770    3.20163590170661
C          -1.68831323147789  -11.95384818337669    2.28854734014326
Cl         -3.25033454951634  -13.70383033764092    3.58501837773030
Cl         -0.66480214692180  -14.78435050885166    4.92699238278852
C           1.87929812491942  -11.12943887364552    2.13581233558298
O           3.03265320726785  -11.27150031748072    2.47330094139114
C           1.34066164406511  -10.11500869703044    1.17615501348011
C           2.08795049035195   -9.15949937135142    0.59654536250536
C           3.53174387297258   -9.05367701602946    0.73836035360106
C           4.10951765844028   -7.86752906714661    1.18372341948287
C           3.43920273001848   -6.62152741205109    1.60508838656921
O           2.26687262374083   -6.36963714869713    1.66308658783631
N           4.47576203850374   -5.73142173482431    1.95032948280209
C           5.74358011503201   -6.31944611909682    1.81147880540078
O           6.79731921600096   -5.78857338149168    2.03502658377975
C           5.48817978506185   -7.70356575370696    1.33744140251455
C           6.37350291192815   -8.73097665887491    1.07562446967073
C           5.80951276861305   -9.92160767809957    0.62163134630840
C           4.43976659808823  -10.08209278742606    0.43403729429062
C           4.05578084304014  -11.39550287215751   -0.13057128042974
O           2.97729647462136  -11.75593417567705   -0.49652330887433
S           5.51796084526706  -12.42403089089801   -0.25254518173263
C           6.61840754366912  -11.12100287581538    0.30881496068207
O           7.79994905977786  -11.24250697941312    0.40241019181096
C           4.18481261866110   -4.45339872732055    2.38052860197068
C           5.09994876526904   -3.47191980576492    2.57399011495055
C           4.76492589462486   -2.18012965710314    3.02230985704615
C           5.60168281610432   -1.07886641600446    3.13458869063708
C           6.98654771044986   -0.95938934759714    2.86590546186329
C           7.59775615893349    0.24144723786478    3.05362329168102
C           6.87388966250428    1.36560171659325    3.53359599485624
C           5.54001846871656    1.29670517708862    3.80712239812628
C           4.85067459832802    0.08213460554717    3.59515452551756
C           3.51537784308046   -0.26990684135915    3.78500556426049
C           3.39948900502754   -1.73040934379864    3.47763841732935
O           2.40742001339369   -2.40502279578220    3.59047765627147
C           2.38518131268578    0.43578035186001    4.21762340836883
C           2.23072340525517    1.79187262080864    4.25724835569562
C           1.06357694383914    2.46532455415097    4.71620917736160
C           0.67898823724846    3.69291763192403    4.13426964105346
C           1.36556126127358    4.47693130769400    3.09604944917021
O           2.41773957715329    4.28810832640965    2.54273128287924
N           0.53213436809615    5.58784129383044    2.83355668811511
C          -0.62520540523630    5.57449905287264    3.63023668383531
O          -1.50402960785807    6.38777001557989    3.61440964554829
C          -0.50819675351202    4.34702764621170    4.45774607860657
C          -1.39143527516406    3.84780268931256    5.39706319960374
C          -0.98985831239194    2.68462053594883    6.04626715029038
C           0.19753536247015    2.01733001060899    5.75166162118082
C           0.51513202417795    0.94367195684854    6.71027018312477
O           1.53007355795685    0.33019326497882    6.85072940087026
S          -0.88701201095952    0.71331845054722    7.82938880735935
C          -1.79439844665779    2.08718998840878    7.13616890077009
O          -2.86606924425481    2.44394948237608    7.52030532789534
C           0.88111414600374    6.51339254915302    1.87568088557832
C           0.20632823418189    7.63867195791157    1.56677015166626
C           0.68645296730760    8.47979404842492    0.52694335411440
C           0.11439492143752    9.65297324941396    0.13805498147303
C           0.55891877336568   10.52488383843908   -0.93841181325718
C           1.60995599473388   10.31772076263727   -1.79052281010449
C           1.97913074621974   11.20466000925008   -2.82589864997542
N           2.33457041640772   11.87664802895278   -3.68534854690327
C           2.47594154698006    9.20279637755209   -1.77782079891491
N           3.22436716334696    8.33431180773170   -1.84014937091560
C          -0.33727867911132   11.67780626426929   -0.96822509310256
C          -1.30934114508476   11.53040846870346    0.03616569071454
C          -1.08280707442615   10.26752068024517    0.77183507611905
O          -1.73738363795604    9.84673844637977    1.69706794133994
C          -2.29373566625209   12.47519302258512    0.24325902833015
C          -2.31112294641577   13.59920544679137   -0.57253533796001
C          -1.34656984765314   13.75572028249512   -1.57586246066268
C          -0.35725817142641   12.80114273301110   -1.78071360775459
Cl         -1.37734725772977   15.15024710190931   -2.57673374885560
Cl         -3.51758966430146   14.79845393953954   -0.34829848155739
H           1.56808252750050  -13.28606626222601    3.97222541610825
H          -2.60501310874040  -11.60576857458141    1.84121020511776
H           1.62387879002545   -8.36336808126050    0.02888546681739
H           7.43869879599604   -8.63057648261433    1.21017039055404
H           3.12611733618028   -4.29122091308048    2.53648842807628
H           6.14285536886915   -3.66721519708195    2.36930642769895
H           7.54067536811276   -1.81992577051196    2.52444861176893
H           8.65271294186580    0.35377761585971    2.85456435783213
H           7.40839188552528    2.29072086503100    3.68945476736608
H           5.01728677332010    2.15484927275849    4.19557831581730
H           1.54294403042743   -0.19874423011789    4.46645950956951
H           2.97313698430437    2.42097442403993    3.78970118731497
H          -2.32085059489919    4.33650565020105    5.63955468434051
H           1.79878683270404    6.24253802946849    1.36314198346031
H          -0.69778087405888    7.91650926431647    2.08622763027070
H           1.57693295240611    8.13838828675122    0.01434623608768
H          -3.02898540077904   12.33976806419295    1.02073422941931
H           0.36749690030900   12.95829095837119   -2.56240065944673
