124
 SCF done       -234.863902826466          0.000495452695
C           1.63476596683645   -5.73811977047066  -11.17988477775529
C           1.17017964749842   -4.66696738705510  -10.45304356965431
C           0.83389403308072   -3.41695658526897  -11.01089872111034
N           0.53582267172428   -2.37963605444178  -11.40124733914104
C           1.10444367999705   -4.65153384168661   -9.04674185703383
N           1.06461436956628   -4.59013559754844   -7.90048998994871
C           2.02771828272047   -5.69054082817138  -12.58820128523958
C           2.84629854396348   -6.79972171099609  -12.86733793623655
C           3.40276936828633   -6.99283326369734  -14.11437059936799
C           3.12455240227627   -6.06402517206933  -15.11070390282492
C           2.29869440145172   -4.96767626445640  -14.84436346588036
C           1.74802381228976   -4.76979062482235  -13.58161520966182
Cl          1.95192032994959   -3.83804740297001  -16.08972840749171
Cl          3.79924207771904   -6.27032571497124  -16.67702993954686
C           2.96034614156368   -7.64146554003470  -11.65515004071773
O           3.61640513530136   -8.64626409537634  -11.50663066491634
C           2.05400146924167   -7.00984699236615  -10.66011259395503
C           1.74439477346375   -7.70005499584189   -9.51695712976853
C           0.66601723371318   -7.53944394354203   -8.63664336945953
S           0.73882751784921   -8.26127480371195   -7.04408041774830
C          -0.83799907685331   -7.69962981496683   -6.57312050529859
C          -1.43360270348563   -7.01994414410721   -7.65110606736816
C          -0.57680355120957   -6.93419572823738   -8.78410757747897
S          -1.31794547482398   -6.16451524505000  -10.13925814169291
C          -2.77431714155429   -5.88830498822933   -9.20828051556815
C          -3.83832803616533   -5.19453253776320   -9.93458309946307
O          -3.71707498021800   -5.01338415641300  -11.12735526482376
C          -5.01792498143035   -4.68748226718699   -9.14131588804505
C          -4.59755576847382   -3.47249319524478   -8.31028305214105
C          -2.67158976332338   -6.39289587637140   -7.93874917418616
F          -3.68550686065572   -6.31900012153944   -7.06707401513462
C          -1.22097864331641   -7.97432254082302   -5.24128367445015
C          -2.37372869553527   -7.61587042259691   -4.61857690300416
C          -2.70344158157084   -7.84877809725244   -3.24504197108538
C          -3.93393661361025   -7.40390961269816   -2.79553166914480
C          -4.29431137710249   -7.54742974334439   -1.44550053439699
C          -5.43666519711507   -7.15952990839966   -0.75651495920083
C          -6.65804935932008   -6.46026961600884   -1.25255122147901
C          -6.34179006777720   -4.97013639627673   -1.49383862611259
N          -7.57458003104906   -4.20572489671845   -1.57494776063567
C          -7.30450011791173   -7.14861220320452   -2.47992394656172
N          -6.73905933249908   -6.72491821301314   -3.75179829771771
C          -5.21198215908524   -7.49113647424888    0.63220760128140
C          -5.95606679611214   -7.26012033515864    1.72886075881276
C          -5.46936840060447   -7.61481019433830    3.09387275993580
C          -4.15303391621902   -8.32996536197298    3.11776793923285
C          -3.42738484100078   -8.56436962592429    2.00965395024022
C          -3.89468510845930   -8.13623178866102    0.74342861552600
C          -3.34983743323316   -8.16657346723804   -0.52133328972939
C          -2.11079253015141   -8.64329718834005   -1.01463419420308
C          -1.80301185580943   -8.48887260233137   -2.32499645589005
C          -6.50122216938979   -8.43390369762897    3.81770492020167
C          -7.17326090774815   -7.99713724887330    4.88758661437384
C          -8.12602125686128   -8.75529499069915    5.63238980363496
S          -8.52634163372169  -10.41525048170914    5.31620416456343
C          -9.67800041039698  -10.50881826385909    6.63144972538475
C          -9.71839549256134   -9.28250533011931    7.30568133459473
C          -8.85091289526429   -8.32054979107385    6.72231421582570
S          -8.87541895020536   -6.79877730776838    7.55082311189249
C         -10.00341474162787   -7.43422996822252    8.72926337329211
C         -10.48838450618468   -6.61233792551602    9.85242672013488
O         -11.19040239130254   -7.07498088832311   10.71778964832745
C         -10.03462544350561   -5.16956408090283    9.81638752708622
C         -10.57755309779440   -4.37821377905412   10.99721051098034
C         -10.33723249904651   -8.73888786785457    8.46449925565257
F         -11.14767997494562   -9.43522282422628    9.24829509009546
C         -10.36314047519046  -11.72784317162686    6.81181307520539
C         -11.48218310246670  -11.93387119311042    7.56332346085392
C         -12.04228531768160  -13.22194904825160    7.69253893090869
C         -13.20696974665786  -13.50055870630179    8.35516186692430
C         -13.77371916712087  -14.81022945592645    8.61055405719470
C         -13.31556334047449  -16.01679228713308    8.14798535020210
C         -13.92237714940446  -17.25824824094447    8.43532642247009
N         -14.36237388234162  -18.30101964903443    8.62657998745897
C         -12.19531719461004  -16.20305583952986    7.31098758911547
N         -11.30403385039652  -16.44112899702817    6.62683618583558
C         -14.95184321326678  -14.62215039732042    9.45535792178064
C         -15.14701974319470  -13.24677408114664    9.66906977201621
C         -14.09762865271874  -12.47909894267499    8.96320189665302
O         -14.02095734529010  -11.27463639516403    8.87666872097654
C         -16.19134194876519  -12.76783615761809   10.43272312616427
C         -17.06359346877796  -13.68524293905124   11.00521619295877
C         -16.87564429556010  -15.05727259696321   10.80140330222635
C         -15.82387560354128  -15.53472269414695   10.02733887887751
Cl        -17.95889961954079  -16.18132349412770   11.51672590478298
Cl        -18.37403131370756  -13.13212954287758   11.96570188157080
H           4.03757674372004   -7.84242540743871  -14.31019431600852
H           1.11108184016874   -3.91745507632268  -13.40962619574275
H           2.40512075805001   -8.53456028628176   -9.30226468227600
H          -5.40247449770433   -5.47182059246664   -8.48894954978100
H          -5.79526278817832   -4.39692308237668   -9.84947789536992
H          -3.84741037720691   -3.74310123961946   -7.57132809705901
H          -5.46084267511157   -3.06385371516043   -7.79111431919938
H          -4.18427978799762   -2.70067756762515   -8.95546993078230
H          -0.46721927314149   -8.51807800007884   -4.68757003280051
H          -3.13289500583191   -7.08793461610214   -5.17119159359066
H          -4.63717515871628   -6.94552120685840   -3.47552290068447
H          -7.40674708959509   -6.48931327386594   -0.45522112186918
H          -5.69167131794334   -4.88031706314329   -2.37588024572635
H          -5.78447105135088   -4.59743074801141   -0.62930279531636
H          -8.09088258195169   -4.43844660209680   -2.41605852228990
H          -7.37677380225296   -3.21211821083075   -1.59865739357098
H          -8.39061167265400   -6.97297115339768   -2.42939806491529
H          -7.13939730639201   -8.22504572877824   -2.38591558400450
H          -7.08219967347529   -5.80781823086391   -4.01530694041961
H          -7.00284742131415   -7.37258430924858   -4.48490483595383
H          -6.92667225511421   -6.78568262671011    1.67912193434486
H          -5.35603114029748   -6.66749815163357    3.64518752024292
H          -3.81028673552191   -8.64507749771979    4.09138496022826
H          -2.47435751903290   -9.06887537940390    2.07327974457871
H          -1.41845979344967   -9.11905140018730   -0.33562411241107
H          -0.85377148342079   -8.84590765371827   -2.69160585231183
H          -6.66513445670209   -9.43145375621606    3.43413124742040
H          -7.01388360028124   -6.99425945108559    5.26610445966052
H         -10.36811579341297   -4.72987895703337    8.87218062470446
H          -8.94094325606919   -5.15501202180138    9.81298252767622
H         -11.66422267223597   -4.40094294219542   10.99481133482114
H         -10.24521752749942   -3.34470421753585   10.94785217911038
H         -10.23489237980663   -4.81586944307969   11.93123713001718
H          -9.96103234126946  -12.56326080521401    6.24897337822890
H         -11.97506039692249  -11.12128200292626    8.07051030391636
H         -11.48280549811722  -14.03920924564451    7.25532232351346
H         -16.32099164335883  -11.70750173166703   10.58170577708294
H         -15.71239403344006  -16.59820097541627    9.89444539233507
