88
 SCF done       -196.374851466971          0.000316696073
C          -0.02527460691049   -4.33824030962439   -2.95067898258616
C           0.52053124017225   -5.57397449855762   -3.16753246884196
C           0.55244253331977   -6.20540250285928   -4.43014326179962
N           0.58337029211971   -6.75885818127150   -5.43392450354307
C           1.21858749121743   -6.30307939053166   -2.17982378726172
N           1.86197786168282   -6.88862566835182   -1.43177889412813
C          -0.46920394994652   -3.40195654977536   -3.97847609497852
C          -0.52106357901654   -2.10719805610754   -3.42560195447798
C          -0.86259767401800   -1.00856509348507   -4.18884834214470
C          -1.16847231049201   -1.20461912416402   -5.53001721777699
C          -1.13178110511346   -2.49237730212355   -6.08341059539684
C          -0.77969397907708   -3.59610768095219   -5.31433366246987
Cl         -1.52409037622652   -2.71963197088926   -7.73688460010115
Cl         -1.59275712463194    0.13583020296655   -6.51130187649405
C          -0.17303310123798   -2.16160422587093   -1.99028997855705
O          -0.06627893304629   -1.24983346073975   -1.20948373135277
C          -0.03547722574356   -3.61890513395913   -1.68894018664524
C          -0.03892880635087   -4.06376627620795   -0.40971251091994
C          -0.25238972129161   -5.40272919681057    0.02647554667398
C          -1.15820934124202   -6.39012926447738   -0.58128082932188
N          -1.17707695898333   -7.54024606094702    0.02132898455611
C          -0.28148028915023   -7.44050123343081    1.04254249113400
C           0.27304956004610   -6.07177962196866    1.10395169395534
C           1.26659036239390   -5.98084541176612    2.14034470268094
S           2.13843846177393   -4.66125177660849    2.58295229824163
C           1.32794836779823   -7.31249067689054    2.68253528113229
C           0.34865171446997   -8.19140434029119    1.99771025185573
N           0.43980346886608   -9.45924158721160    2.47556552957054
C           1.41095384039489   -9.44698478133131    3.34261138297608
C           2.03844567477095   -8.13237193693565    3.51886794586628
C           3.17228890738391   -7.77996726630691    4.34259394306625
C           4.34777948540357   -8.48898941767894    4.38240783125639
C           4.65965403134667   -9.77072456225692    3.69690973493987
F           4.24415771830815   -9.79039916740005    2.42028018618074
F           5.97203719754640  -10.03022161146959    3.68398426555230
F           4.07268260177350  -10.83035617922006    4.29280932335678
S           5.59516238269330   -7.68196329413010    5.26926916078393
C           4.52309604088300   -6.35826521459817    5.60169091873386
O           4.87786016121029   -5.30517597002724    6.32555158568038
C           6.20966883302945   -5.25147191682329    6.79257173680144
C           3.25957480357898   -6.55090716577654    5.07367492328746
C           2.17765735571040   -5.62939736823470    5.29367445721801
C           0.88738208904244   -6.03125468214924    5.39714884110783
C          -0.22906569770393   -5.18252612935044    5.56739468098189
C          -0.28467918882419   -3.71174354961978    5.57039516207727
N          -1.47339927493992   -3.21941370553689    5.74672142951363
C          -2.30747913827285   -4.29624917805685    5.88019438622475
C          -1.54553181989087   -5.54953564687379    5.75231257343648
C          -2.41262864596808   -6.67666551905057    5.90026430189428
S          -2.03935104591731   -8.27031572366499    5.69922791031978
C          -3.70325881601869   -6.09281037931561    6.18848165686730
C          -3.61569511665088   -4.62033354200564    6.12053496789580
N          -4.84209483852139   -4.06274585872643    6.33087015904168
C          -5.65793432847867   -5.05698991440830    6.51203873157186
C          -5.01524325986470   -6.37835505242806    6.46736404757763
C          -5.67326967895234   -7.63832461753682    6.61196963339037
C          -5.11973738239563   -8.71314585656144    7.22143712972431
C          -5.59364752156589  -10.09080581854110    7.21261109865964
C          -6.79868226508880  -10.54199580293780    6.75172646790217
C          -7.20003278733236  -11.89647711021116    6.77610940579735
N          -7.58852265790660  -12.97565662748431    6.77287681059397
C          -7.82142207423465   -9.72175113356927    6.22693875996611
N          -8.69494064449347   -9.11273092709818    5.79906508289226
C          -4.53584429392920  -10.91169559879832    7.79233363319995
C          -3.51182583620862  -10.07704786374350    8.27621436432396
C          -3.87206557998765   -8.66491048670298    8.04697683473777
O          -3.35114912422503   -7.68817349112532    8.53177965529148
C          -2.38219048579172  -10.58743373836210    8.88338340912566
C          -2.26185678502894  -11.96577071962498    8.99831556102090
C          -3.27465015469022  -12.80620536068026    8.51585296322521
C          -4.41504251210334  -12.28766133423513    7.91441800872288
Cl         -3.11344502981795  -14.50700224211868    8.66941101850544
Cl         -0.86859109734046  -12.64142979453715    9.73469635863682
H          -0.88779063217697   -0.02251340169043   -3.75240600591509
H          -0.76364821828924   -4.57343473897115   -5.76904432138810
H           0.09085840856618   -3.31182934262974    0.36265057172877
H          -1.80807544512583   -6.19716867874949   -1.41777736798403
H           1.67280864919261  -10.33903157102409    3.88356188500411
H           6.30252445485342   -4.31207217505363    7.33291798198380
H           6.91723479548802   -5.27299770851593    5.95837218740430
H           6.42125948590452   -6.08959415437197    7.46341197067780
H           2.45878035117036   -4.60329018679143    5.47812581554744
H           0.65138903953920   -7.08648570782342    5.34607910338856
H           0.55811796359929   -3.05755153596897    5.43092017178105
H          -6.70381778105026   -4.88944310793640    6.70086028875735
H          -6.65784193609132   -7.70731507549326    6.16617187223678
H          -1.61172013502023   -9.92855438635201    9.25123594145606
H          -5.17322531309630  -12.96434057857820    7.55561416433742
