99
 SCF done       -198.254014731754          0.000542017606
C           3.13773490615176  -10.45634135076405   -3.42941540378346
C           4.29295902498011   -9.75061968358419   -3.62260643955753
C           4.64603479358182   -9.13030677130618   -4.84139038124033
N           4.98345678963411   -8.60521044149655   -5.80376360717450
C           5.30282068135263   -9.57495508425041   -2.65006779570967
N           6.17298295532139   -9.41182142655313   -1.92032733545997
C           2.11928761394047  -10.73292200484813   -4.43709663741713
C           1.14614554016981  -11.58715886456094   -3.88631395790019
C           0.05986670937484  -12.02200489104812   -4.61933060862156
C          -0.06042627093727  -11.59634224027482   -5.93599838581751
C           0.90209871196495  -10.74258615254672   -6.49225634526233
C           1.99390911342011  -10.30660780027746   -5.74996649387732
Cl          0.73729560868286  -10.21880946367855   -8.11693242226871
Cl         -1.39309154223060  -12.11648035858164   -6.88211648230154
C           1.48097472348272  -11.88883234619974   -2.48093204539011
O           0.84095826775393  -12.55976917813372   -1.70441697214577
C           2.73149636444524  -11.12875901234716   -2.20550679258704
C           3.26476513027423  -10.97294617641184   -0.96625698753835
C           2.88213574442080  -11.68662225830451    0.20268497541604
C           2.49080522855355  -13.09945311006361    0.34961537795793
N           2.23403434092429  -13.45111284408819    1.57513218775406
C           2.41427189323617  -12.33501216613634    2.33372623104966
C           2.84480847983560  -11.20887708961238    1.49158032942477
C           3.04969602095959  -10.02717255714015    2.29060931928397
S           3.57958665781877   -8.57180899432507    1.74716142434460
C           2.73614543037526  -10.45213981320119    3.63041751415188
C           2.35730675629962  -11.87988189193902    3.62688330868277
N           2.06151369983935  -12.30416930684664    4.88680242459142
C           2.22655882929804  -11.26845733409577    5.65363862198472
C           2.65055389490259  -10.05452449136635    4.94736639993956
C           2.87032873024092   -8.80349927027599    5.56821929277541
N           3.20105713939410   -7.69464323267902    4.97819400835226
C           3.30423523907401   -6.68338748270627    5.83868349502206
C           3.04757006294318   -7.00655662729170    7.16358368483197
S           2.67262424163428   -8.65397486468063    7.34330149304878
C           3.32131737730815   -5.82427338726200    8.00137733142338
C           3.00191626710816   -4.71699080615059    6.98471022310647
C           3.67597881219939   -5.21998745462162    5.66457708526790
C           5.21266159100653   -5.10875186215993    5.66712507189112
C           5.75701871598824   -3.68536349196938    5.62417950918842
C           3.04869316809314   -4.60628898370275    4.40726626090818
C           3.59446239829518   -5.17460844698279    3.10310723069245
N           3.29181104742307   -3.47511491488104    7.66537495067645
C           3.40568033982956   -3.65950324127772    9.09851531774913
S           2.51294537336403   -5.21346766052495    9.51213405173200
C           2.94470322820071   -2.25926023046048    7.19201779980766
C           2.04197682137140   -1.96404256145400    6.06391035343408
N           1.88734596783387   -0.70060714661361    5.83015324778809
C           2.65821505054075   -0.04906912542090    6.75568189473115
C           3.30214226900262   -1.01223786828272    7.66233356604359
C           4.11745140717953   -0.31293185840714    8.61327811176655
S           5.10800534778663   -0.90464809906944    9.79007027431361
C           3.92902043822629    1.08098125646954    8.28236920323781
C           3.03885859665788    1.21350489548974    7.11983494830435
N           2.88851755454345    2.52791518661788    6.78536427737315
C           3.62809836832688    3.19653495460258    7.61530756949382
C           4.33986248639858    2.35347418792093    8.59587302389397
C           5.18815298724682    2.75103888038380    9.66636421619766
C           6.08195298093555    3.77230147383003    9.63524031761446
C           6.91312258922818    4.24696447904506   10.73058071783635
C           6.75363887842695    3.95036517874307   12.05567220945970
C           7.57922314521690    4.45609020266618   13.08410588762228
N           8.21824694472134    4.83345431017258   13.95879718817550
C           5.72524073444487    3.13507034436868   12.57978231296457
N           4.90276409249168    2.50730930363508   13.07557266165671
C           7.89897696311145    5.16140395318199   10.16456317620277
C           7.65699121263649    5.30393546644343    8.78569737633402
C           6.51017279824062    4.46413979801875    8.38751614446931
O           6.05818053273987    4.32287705076845    7.27490285864062
C           8.43663131870711    6.12006868124648    7.99035251563624
C           9.48442188866248    6.81279948377814    8.58321606756383
C           9.73551442468749    6.67380348846109    9.95528906756424
C           8.94795399203615    5.85087684905974   10.75236911474604
Cl         11.03777712536874    7.52907619107146   10.67263363422137
Cl         10.47491898851229    7.83945809491767    7.63107544995253
H          -0.67439431909224  -12.67695137472002   -4.17732763114681
H           2.71148571230995   -9.64674104384821   -6.20944393599476
H           4.01181535567748  -10.20406454580898   -0.80150683575723
H           2.45695142719292  -13.82216078866632   -0.44382194735637
H           2.04732576802486  -11.33177331635573    6.71315265478506
H           4.38779320167503   -5.82872366429534    8.26314751004828
H           1.91595410408898   -4.76462631676576    6.79132027764804
H           5.61046022526311   -5.61015661571356    6.55240228158688
H           5.57770915653083   -5.66286140762317    4.80179583826816
H           5.47274986988570   -3.12178762714245    6.50862641149209
H           5.40699959434253   -3.15179158064591    4.74525824326214
H           6.84326179199389   -3.72016568377189    5.58420758442150
H           1.97139961985102   -4.79215544811033    4.44057034499761
H           3.20923871701452   -3.52644941156026    4.42238655701873
H           3.55227739772999   -6.25890595841245    3.11627843028455
H           4.62021006556862   -4.86244613784340    2.93063302834261
H           2.99186193883001   -4.81599222243204    2.27250468634520
H           2.95245975364855   -2.83063122740607    9.63965631023833
H           4.44745429239481   -3.77246599451514    9.41289603745472
H           1.47765443961252   -2.68969248530619    5.50828609415492
H           3.64721406741943    4.26984119757035    7.59123331945119
H           5.12208308386763    2.13055385277447   10.55310349372152
H           8.23333065104277    6.21518976842554    6.93531261039480
H           9.17325835603692    5.76480802738431   11.80277142627307
