82
 SCF done       -179.323657238340          0.000439751411
C          -2.82920061285802   -3.49845001980538    5.31621642174829
C          -2.35980633287827   -4.61283257453116    5.96949066818111
C          -1.45338420818644   -4.60371013337277    7.04629698538836
N          -0.67261384577997   -4.70618873767178    7.88345151277252
C          -2.82785341556421   -5.91588829677403    5.70481268183273
N          -3.20894168192784   -6.98514262048687    5.53910960601605
C          -2.62533818091413   -2.11935264989308    5.74977095193940
C          -3.48402068813688   -1.27607679844616    5.02129214535215
C          -3.52106542789076    0.08523918722193    5.24215882685396
C          -2.67376623419593    0.62025435144769    6.20621670318625
C          -1.81079620577802   -0.21252011151221    6.92880858870096
C          -1.78369452941180   -1.58584580988045    6.71008580611007
Cl         -0.76377701453617    0.46326616059814    8.10834083860105
Cl         -2.68592683145786    2.30967228980668    6.50703704711345
C          -4.24968359292191   -2.08376295334209    4.05005249104861
O          -5.11721694271374   -1.72213757213723    3.29432793696137
C          -3.68839864246564   -3.46887502240600    4.16502763214817
C          -3.98410194764063   -4.35156652185715    3.16619868730736
C          -3.42916569156794   -5.58808973917617    2.76983586875151
C          -4.17799165121764   -6.51074284536373    1.89405393732455
N          -3.55768719390660   -7.61251959078176    1.61475806336030
C          -2.35144273732660   -7.52621450898773    2.24198272591788
C          -2.21934158461845   -6.23523918534577    2.94853639478780
C          -0.90781088251575   -6.15037780394186    3.54399412909636
S          -0.16487143669257   -4.82529260150314    4.18561090508411
C          -0.34533087118316   -7.45421395225675    3.35277655985605
C          -1.21762828503361   -8.25494026059270    2.47931349834031
N          -0.64940344945064   -9.47104613095357    2.21671428242076
C           0.46363215584163   -9.49017011407121    2.87908426045015
C           0.71482210554032   -8.27383899236484    3.67404833869825
C           1.76863276234926   -8.10186627210700    4.59647831721321
S           3.26769713632247   -8.96022450832777    4.46258865579520
C           3.89929742020826   -8.17813141414634    5.88307729944339
C           2.95422373748329   -7.31033372296811    6.44929681628473
C           1.73573089649754   -7.29792099655176    5.73901337988509
O           0.58705529007786   -6.69908773045183    6.09431111200722
O           3.25537566646387   -6.60938010843577    7.56913788219089
C           2.66072033675765   -5.33348254064225    7.77540588863656
C           5.20993526058017   -8.44122812539829    6.33564281061637
C           5.86233680702039   -7.81442009714853    7.50111637317050
N           7.07852225351770   -8.20923683313885    7.71057408513410
C           7.34982269844477   -9.11892983266146    6.72955694940664
C           6.18678025008707   -9.28308325077981    5.83650837216167
C           6.48526326309917  -10.26082341113478    4.82878112351546
S           5.53827728200404  -10.86294962719117    3.62433674992141
C           7.83407371583815  -10.67786768381690    5.12926214415552
C           8.34810851292788   -9.95208499225536    6.29896604480070
N           9.61555365488660  -10.36303898571865    6.59105971752826
C           9.92026615433845  -11.25360769352755    5.69686815968359
C           8.84290043124631  -11.51635997371961    4.72266894870596
C           8.80071432626909  -12.44991488255189    3.65024895093288
C           9.83700164009779  -12.78546751854220    2.84023075252336
C           9.83826756027867  -13.78081172779734    1.77874651050538
C           8.87931134774198  -14.72846559255738    1.55215203806400
C           8.93997885244994  -15.68171088111623    0.51136153844899
N           8.93213550809886  -16.47706141156467   -0.31508468980988
C           7.71951320788550  -14.91086722276065    2.33884510428788
N           6.77209947698961  -15.13709291187155    2.94504117026613
C          11.08612686957714  -13.62608461755290    1.03828538038746
C          11.85284496342444  -12.60760652416414    1.63385254867115
C          11.12455030147723  -12.03890511485485    2.78443235516673
O          11.47557445174188  -11.12303208955115    3.49181842507925
C          13.09230865712767  -12.24720132491977    1.14354695763096
C          13.58318461893944  -12.92033040923471    0.03228817548332
C          12.82596722949137  -13.93524350776337   -0.56891497406063
C          11.57753856418148  -14.29332202508084   -0.07295272799501
Cl         13.44225018964796  -14.75528328068841   -1.94357905793809
Cl         15.12036733148352  -12.50618063480458   -0.60568091118936
H          -4.18891729187019    0.71784170809245    4.67908698156755
H          -1.10360051533763   -2.19815135647537    7.27941516663251
H          -4.78654049342152   -4.00370910663312    2.51740175798945
H          -5.16544744380310   -6.31752209703267    1.51263996443431
H           1.12615659598776  -10.33760466217033    2.84098159401619
H           0.64640759866135   -6.25959040398350    6.95475392150519
H           3.40665184457768   -4.74584278679321    8.31171117823258
H           1.76621734624345   -5.40454255008283    8.40181427788984
H           2.42757185590426   -4.83280329169713    6.83326252174454
H           5.39889292083756   -7.08879623755093    8.14278310881909
H          10.86586908507882  -11.76106997063026    5.73050068817558
H           7.81941020248021  -12.87138756863664    3.46095143511195
H          13.66259623491708  -11.46265624501487    1.61549929932977
H          11.02215929069944  -15.07543239551857   -0.56412476739666
