85
 SCF done       -191.173382746696          0.001149086380
C           3.77649333107103   -5.84237670355129   -1.33813770898797
C           3.48243523507621   -5.61272370817471   -0.01705191612768
C           4.24737463309691   -4.80447454191401    0.84937968330102
N           4.83891294010878   -4.20850655577282    1.63282484032800
C           2.34092010263478   -6.12777434566013    0.62780306530116
N           1.42140860307678   -6.52033940413484    1.19134341630285
C           4.80621202709958   -5.13399445048303   -2.09465680982010
C           4.57653490933686   -5.31637311739103   -3.47073641734660
C           5.38161348559253   -4.72635509104779   -4.42409444820995
C           6.44879001710490   -3.94566589626843   -3.99477768805865
C           6.69448169207562   -3.77502056817724   -2.62567850716282
C           5.87433147540665   -4.36375617473771   -1.66887277996590
Cl          8.02599964961892   -2.82521838701790   -2.11002041548212
Cl          7.47104185637417   -3.19321709809836   -5.14743850461103
C           3.41567933135351   -6.20717190524252   -3.65704162585560
O           2.88253116274954   -6.54328429947641   -4.68433252457112
C           3.04789792678057   -6.66476078908484   -2.27470040434509
C           2.24468685766622   -7.76067502993906   -2.17968806033246
C           1.95253594889568   -8.63944268434282   -1.10951607670378
C           0.76507555741052   -9.51348352888687   -1.09676560909844
N           0.62517732502751  -10.21379753993233   -0.01358874937587
C           1.69106431113429   -9.90410371151050    0.77200052194892
C           2.58453252197261   -8.94818793655699    0.07640804226826
C           3.71189611153778   -8.64813331859232    0.91310151277441
S           5.14054164134431   -7.96479719795838    0.45311451663845
C           3.37009326568184   -9.22695200282100    2.18459275602820
C           2.17677146803216  -10.07475425579824    2.04085983498672
N           1.86059470809053  -10.65347345977867    3.23841510554650
C           2.71788248449629  -10.19781369611707    4.09560355581567
C           3.69078012922371   -9.24617963351984    3.52414416520924
C           4.59860749816406   -8.38701077309955    4.19397154961904
S           5.08573397098458   -6.93887474671233    3.38218778616694
C           6.00358446431655   -6.38831499903498    4.74090965960983
C           5.95128976627569   -7.32545923396872    5.77987441945151
C           5.14943239281765   -8.43525789718769    5.47639461888715
S           4.87808339717234   -9.84033697617302    6.49440356299723
C           5.58966395555237   -9.56222444249772    8.09333063731022
O           5.45863836369136  -10.43946853725037    8.89761628005340
C           6.34072932652816   -8.30388375614588    8.46544502311850
O           6.72162368486804   -8.15021403150114    9.59014992816648
S           6.77664159202496   -7.03889128709112    7.30359657112022
C           6.62613882548399   -5.12545727151609    4.59410878620240
C           7.54528010046207   -4.55659846261874    5.41514992406153
C           8.11170513772495   -3.28017036440795    5.18518573457124
C           7.73083545078026   -2.27166490220014    4.17809597476456
N           8.43766899617026   -1.18382325863578    4.21683373120617
C           9.34550791888355   -1.36098084204984    5.22344936254210
C           9.15724502406931   -2.68166863350774    5.85380972564329
C          10.12890787546790   -2.88043785022210    6.88900101289414
S          10.25232408575383   -4.15056622700603    7.93123231130607
C          10.92993457306030   -1.68185560773133    6.85452064678206
C          10.39452638655246   -0.74253842385451    5.84663787994699
N          11.10449285753839    0.42195289933573    5.86220049195520
C          12.00213328973815    0.27864133345926    6.78996993441587
C          11.97969717275369   -1.03385885616138    7.45306682608279
C          12.81821256683431   -1.46799924973667    8.52483492257295
C          13.22309017856003   -2.75175091774075    8.67268251428853
C          13.83188159602033   -3.37795474348296    9.83833255446802
C          14.31470395801185   -2.74614284981380   10.95005850625497
C          14.89945238506570   -3.41368947254011   12.04931635019118
N          15.39026084058456   -3.89467755499195   12.96780222383146
C          14.33064876238791   -1.34641959251857   11.13575199243135
N          14.37484999226175   -0.21837571557136   11.34201649129470
C          13.82515966082077   -4.81763230457188    9.60229436498709
C          13.38563272577141   -5.07288994088423    8.28995054916044
C          13.10574671014206   -3.79711102488387    7.60460879251437
O          12.96758792021753   -3.61353383932475    6.41761530129750
C          13.28135291464593   -6.35678601909817    7.79366317754935
C          13.60477418798941   -7.41504113581683    8.63184270473714
C          14.03911266591663   -7.17176644322995    9.94260624645741
C          14.15553528982002   -5.87705122038464   10.43370973684853
Cl         14.43797189138687   -8.49024899064461   10.96441933678910
Cl         13.47075054705560   -9.02593531713013    8.06065087600082
H           5.18708137952383   -4.86901353387937   -5.47524115851648
H           6.09702802236755   -4.22169186813392   -0.62430951568576
H           1.77707157123996   -8.03548441345304   -3.12359833356489
H           0.04251311947817   -9.57391186943790   -1.89175581441230
H           2.67110943727858  -10.49837329693093    5.12626031018110
H           6.32678531839775   -4.60011633751623    3.69557187416999
H           7.91725605084634   -5.08126166728659    6.28339020462013
H           6.93934986693336   -2.37713965161807    3.45669293616836
H          12.70195829543797    1.06600254150082    7.00972982653744
H          13.08134004145887   -0.71599864955877    9.25779946356508
H          12.94715517781068   -6.52936908901927    6.78284194263495
H          14.49340011083591   -5.72786565115306   11.44609647201647
