99
 SCF done       -232.875560287561          0.000784965583
C          -2.29351027223262   -2.40572212126196    7.40561548530539
C          -2.10270928682524   -1.16602753829107    6.86710777256361
C          -2.55438038738051    0.03137979873100    7.46715768098537
N          -2.91365660152402    1.02960548248789    7.90119479116487
C          -1.38220386795528   -0.93069983550744    5.67818046103860
N          -0.78492696626805   -0.69131028979603    4.72770344069310
C          -2.85587129456971   -2.70440203023754    8.71388379667549
C          -2.52311102976729   -4.02620024427306    9.07131149280270
C          -2.91985400082734   -4.57081384765804   10.27674931840532
C          -3.66969639293481   -3.78403560554546   11.14230256624496
C          -4.01477196705352   -2.47092022763833   10.78709447340711
C          -3.60905215474085   -1.92339491292845    9.57590600166267
Cl         -4.95576826801771   -1.52118619768137   11.85838224094577
Cl         -4.17994216646393   -4.42270514538775   12.64740946208867
C          -1.77345109552836   -4.66939900930376    7.97673531440867
O          -1.29074117331119   -5.76925374590969    7.93746324701530
C          -1.82000087739034   -3.67056184002119    6.85576424429278
C          -1.63852101248203   -4.08172359970351    5.59102312000613
C          -1.95727324702497   -3.38053356641952    4.35916845014093
C          -1.00805192056259   -3.27666590339208    3.34059868621623
C           0.40785551824869   -3.72329173838299    3.35489766528395
O           0.99542023457753   -4.30318424517170    4.22736873094732
N           0.93200945314887   -3.32934293274157    2.12124676801481
C          -0.01709001509901   -2.67362552819384    1.32022477815694
O           0.18555683412752   -2.26453728516986    0.21239523460683
C          -1.25802646464972   -2.62780901765485    2.13430515762746
C          -2.48332043494797   -2.05295369808928    1.85417400852806
C          -3.44664970942770   -2.16564597602609    2.84927236185314
C          -3.20771108803477   -2.80359418963458    4.06800418587408
C          -4.38351960284267   -2.82582913825570    4.96548875335101
O          -4.47710641915952   -3.31452911571916    6.05439004996719
S          -5.74697104699234   -1.96728990498654    4.18434862315913
C          -4.80776068442869   -1.60774692741687    2.69400143993841
O          -5.24949208885025   -1.01785869871251    1.75952878843652
C           2.22392218750912   -3.52820742689583    1.65518393698574
C           3.23530961902880   -4.05730846866185    2.35667304396100
C           4.54199623400091   -4.25085520317997    1.81406181821807
C           5.63846913403984   -4.74407972433159    2.50617632544233
C           5.54010582542753   -5.10824638062320    3.85854361391610
N           5.39776428432318   -5.38917253073243    4.96108133909539
C           6.79952536892055   -4.84104223677218    1.69281687582068
C           6.53901963331426   -4.42281304888258    0.39289991282640
S           4.92041432311538   -3.89457038703548    0.14417090198487
S           7.87819926600185   -4.54872127376803   -0.70404517706839
C           8.82201347735802   -5.18548611193716    0.60312612354011
C           8.14828694614491   -5.27999212858088    1.81910675637436
C           8.99126798489930   -5.81419298924652    2.82307047877586
C           8.68550761732624   -5.94828517241882    4.19058322129568
N           8.52501878061714   -6.02912515621723    5.32252697737239
C          10.25821453443989   -6.10814058495599    2.34340208666441
S          10.45464204065136   -5.71603934015944    0.66620757398762
C          11.26640820071075   -6.74958821527211    3.16547972165075
C          10.89116703658755   -7.85575233211899    3.93634908328590
C           9.64789005117697   -8.66338179496323    3.87065531615414
O           8.78013273516608   -8.66363141215284    3.04252186990413
N           9.71888217094573   -9.54493119900114    4.95992995911720
C          10.94440453970950   -9.47022471269264    5.62686573391642
O          11.28297616165804  -10.13092696398497    6.56832670838843
C          11.71507782385997   -8.41178660465371    4.91159283843903
C          13.00449910708606   -7.95463069318436    5.11905698245256
C          13.42195511903828   -6.91317258989677    4.29808910457801
C          12.58551729966683   -6.30841821385075    3.35825255927115
C          13.19463568878374   -5.15762489005905    2.66237110000498
O          12.69295499023296   -4.44138051031113    1.84828789440746
S          14.88091092086705   -4.94558690625309    3.23857915021136
C          14.77579082556290   -6.32207133426289    4.38826758839844
O          15.67290229423882   -6.66625663345938    5.09203126171854
C           8.58241086400100  -10.24099486915407    5.33072813138806
C           8.40348423713888  -10.92143718937562    6.47463259091051
C           7.12243016508758  -11.40963948489637    6.87917251492358
C           5.93750314149412  -10.78214797528187    6.64336649374945
C           4.62889113568592  -11.24949432115885    7.07968169346677
C           4.29102915023528  -12.54730046648277    7.34873582183392
C           2.99868543024101  -12.96313449290581    7.73457906804851
N           1.97079732653589  -13.35906612795692    8.05577356535821
C           5.17663179544368  -13.64114724087992    7.23333632500838
N           5.83469302713498  -14.57658020889001    7.13844580060664
C           3.72680609828113  -10.10517567224070    7.08349189651811
C           4.41490595947178   -8.98549162367508    6.58237662225759
C           5.78939208410487   -9.36092840430499    6.20499315607804
O           6.60874023931906   -8.64089697863550    5.68336948225720
C           3.81487629195144   -7.74849893401181    6.45741088352866
C           2.48344687898184   -7.62703407522481    6.83614968600507
C           1.78752073394843   -8.73513369692133    7.34138013332593
C           2.40189571008819   -9.97663528170796    7.47012122925248
Cl          0.14683480862591   -8.56100428937697    7.81109329160366
Cl          1.68941708021523   -6.11525300414810    6.67103514119283
H          -2.65491741003294   -5.58353388403353   10.53710810064976
H          -3.90061268423546   -0.91587936849872    9.32699684143553
H          -1.21634857073796   -5.07480408003756    5.46729353620234
H          -2.68863896579093   -1.54126988703599    0.92753424045512
H           2.34379255550678   -3.19477495517791    0.63118143644773
H           3.09910720702711   -4.36761631849262    3.38278266340370
H          13.65642729186057   -8.37462870728501    5.86828453138771
H           7.81109974342254  -10.17032602407086    4.57775528120804
H           9.23302926931038  -11.10429737669376    7.14233192908212
H           7.12673496011828  -12.29081721751979    7.50936268705025
H           4.37069076711550   -6.90643122944521    6.06831032793197
H           1.83758101624312  -10.80375466136782    7.86852361330955
