106
 SCF done       -205.588443110146          0.000516753349
C          -2.10159756545638   -6.97374388899473   -8.48192946633162
C          -1.01122834984294   -6.96357066561898   -9.31577303028242
C          -1.09299606610421   -6.91285999954604  -10.72277296288689
N          -1.08369902996168   -6.87028835416693  -11.87022234702420
C           0.33865812760022   -7.00273640712967   -8.90977252319964
N           1.46156564414435   -7.03378244770231   -8.66815824685168
C          -3.49717075333287   -6.94296998916491   -8.92318984641409
C          -4.33096973679924   -6.97612192018991   -7.79198703159570
C          -5.70579236952158   -6.95874236910221   -7.89670618368096
C          -6.26726104691120   -6.90510675412983   -9.16702702498917
C          -5.44726785344938   -6.87001408990870  -10.29841230812303
C          -4.06028798574843   -6.88920398025623  -10.18663750162347
Cl         -6.15329758973354   -6.80142346244278  -11.86313723106180
Cl         -7.97595615332109   -6.88173533065463   -9.34243137701688
C          -3.49637278659867   -7.02784240031329   -6.57396116701412
O          -3.90027578077255   -7.06176059869873   -5.42428247273283
C          -2.10922685740989   -7.01824726584145   -7.03730110756423
C          -0.99986668825194   -7.01448473641013   -6.22102670400529
C          -0.91088679630422   -7.03545949751091   -4.83040507475610
C           0.30396554366629   -6.94813783042772   -4.14482789953427
C           0.21795997958506   -6.95632903108513   -2.73634945126263
C           1.52031749772049   -6.76286991066519   -2.18024090284830
C           2.51992057926097   -6.65573730189521   -3.09120817905119
S           1.91732813321946   -6.77087571321910   -4.73086054807529
C           3.96785554054987   -6.45632888848116   -2.82945700815387
F           1.77622728810072   -6.65492008913738   -0.86326729462703
C          -1.10607725627916   -7.08096614142398   -2.30069039821352
S          -2.20116155852269   -7.14491784313449   -3.65108686726284
C          -1.64152535602554   -7.13997214073575   -0.96893631165226
C          -2.95172218410528   -6.76712246281675   -0.75059725514688
C          -3.47443240491809   -6.74910379717609    0.55450316464940
C          -4.72460937470306   -6.37613189888413    1.02875927071407
C          -5.89654274053400   -5.96500761894134    0.20418409170260
C          -7.11218541763205   -6.87947347643240    0.45317643565895
N          -7.96375692967326   -6.87096962503690   -0.71834836460436
C          -6.23627529032336   -4.48016533113967    0.42781887556531
N          -7.22795385411714   -4.03005183602644   -0.53682320537049
C          -4.66363327929505   -6.47140569423533    2.46970263557947
C          -5.56221824923274   -6.17530139709758    3.42594321492894
C          -5.23115397768870   -6.29170567690423    4.87789359588459
C          -3.87326641876451   -6.84029420625596    5.16902760525718
C          -2.98591959204563   -7.13356474973369    4.20175207914004
C          -3.32237208968470   -6.95338824686728    2.83828561649118
C          -2.61335480448191   -7.12534917579084    1.66947073962565
C          -1.29929115722187   -7.57861161219688    1.40480767331073
C          -0.83612454821324   -7.59126606602712    0.13137097491462
C          -6.35746922496491   -7.00204301417492    5.57514200080111
C          -6.24581095239236   -8.13515362848228    6.27407246043578
C          -7.34823789037787   -8.75716344111562    6.93962352127010
C          -7.28700347964483   -9.85021357708114    7.78205073265406
C          -8.52933468831074  -10.23292979257004    8.32769048916342
C          -8.37464442080071  -11.35266657698983    9.18325984571174
C          -7.09438549233631  -11.80171029122065    9.30413354427808
S          -5.98395973638771  -10.85394732980539    8.34426244232496
C          -6.61426154540329  -12.94140450449519   10.12270852429264
F          -9.40118725943267  -11.94429225782513    9.81355844305439
C          -9.59563507573864   -9.42533466069579    7.89590268024443
S          -8.99037328913557   -8.21453275684873    6.77828999673654
C         -10.90470235214151   -9.56078540858436    8.36098511225659
C         -12.04519329936490   -8.89788836464820    7.97030215881772
C         -13.36596126383595   -9.08469707096205    8.53418280474025
C         -13.67862280855288   -9.68655047182853    9.72437298115434
C         -14.99392048264024   -9.82211839088540   10.21646505197744
N         -16.03852255014173   -9.97007340820268   10.66826993296608
C         -12.73975908353995  -10.18985088177315   10.65136031436131
N         -12.03869452172643  -10.58055861527365   11.47210274595854
C         -14.31604952603012   -8.41745150596958    7.64467831736196
C         -13.59723058475794   -7.75485538099667    6.63393581218942
C         -12.15278455807984   -7.99347892945217    6.82541297072957
O         -11.24886321166239   -7.53331114229273    6.14836616145525
C         -14.22947582499605   -7.02255833484509    5.65064371423258
C         -15.61721096464280   -6.95367618782955    5.67172396965552
C         -16.34118761095518   -7.61331741569079    6.67040577857347
C         -15.69824846129368   -8.34625901571845    7.66329939127370
Cl        -18.05603052205464   -7.52511379854034    6.68040936587149
Cl        -16.44315279700275   -6.05525630644678    4.46337735072721
H          -6.32632990496295   -6.98687702225882   -7.01507276600970
H          -3.46242565833366   -6.86072469875634  -11.08255127329768
H          -0.03034022706780   -6.97454339574730   -6.70427909958031
H           4.14182544866645   -6.38056899965366   -1.75857282219962
H           4.32122840946714   -5.54663987302319   -3.31352746369722
H           4.54511398559061   -7.29129728999947   -3.22560351928529
H          -3.56393565040456   -6.44925008879560   -1.58190615609332
H          -5.63680235384526   -6.09036524879294   -0.85157879621491
H          -7.62976479212274   -6.56108459559894    1.37325063394593
H          -6.75911855731100   -7.90497081570205    0.60741607829911
H          -8.27467621122214   -5.91906857785081   -0.89081237292554
H          -8.77730787214399   -7.45838209576235   -0.57396104495390
H          -5.29637673811555   -3.90247222046900    0.38327739064406
H          -6.66135074222626   -4.34066036028582    1.42540803741539
H          -6.84720452823028   -4.08913099189835   -1.47634721809734
H          -7.47450371335217   -3.06137343970937   -0.36314935123613
H          -6.55899908850029   -5.83013282461387    3.19375948708534
H          -5.25198265584641   -5.25673399602872    5.26874800484839
H          -3.62036441049594   -6.95044561900195    6.21240652105728
H          -2.00226976312428   -7.50384308264379    4.45102749638021
H          -0.67791604811062   -7.91860686620540    2.21963879309169
H           0.14841917110734   -7.97279391389505   -0.07431458473897
H          -7.32971288150341   -6.53581742120521    5.47840394222297
H          -5.29139112052529   -8.63159218611585    6.38821224240084
H          -7.45096871955763  -13.39059313463093   10.65267452084589
H          -5.87316527165192  -12.60471410616650   10.84714765273064
H          -6.14486209342695  -13.69547403350053    9.49124134048638
H         -11.01958744455821  -10.31814805027931    9.12732012455090
H         -13.66026561107211   -6.51862986297161    4.88577439404034
H         -16.28895991948868   -8.84326080751268    8.41520251248053
