102
 SCF done       -191.194500946677          0.000605264789
C          -8.35483616433280   -6.61327231871386    2.96637820882248
C          -7.40145643306574   -7.54497510718254    2.62104987786514
C          -7.62781222486555   -8.64188437542619    1.77478288834627
N          -7.71709985184958   -9.53002172214875    1.04951544211257
C          -6.09688842641525   -7.55191560679217    3.15052620007521
N          -5.04876960008842   -7.65623750060915    3.61059902259109
C          -9.79711374277358   -6.79647384783531    2.79510338322908
C         -10.46534666498922   -5.91703016049587    3.66511425617172
C         -11.84027589857970   -5.89733676378898    3.75732846597829
C         -12.56695478974399   -6.76839103643607    2.95261160504512
C         -11.90962495384540   -7.63919358168799    2.08093747363048
C         -10.52057759403821   -7.66591807807373    1.99977848854025
Cl        -12.82262242276933   -8.70224191763263    1.08457645850997
Cl        -14.28449740604302   -6.76749577885380    3.03455936474588
C          -9.46687352154682   -5.07941882551336    4.37632398079289
O          -9.68151731372992   -4.23863795467466    5.22274860400713
C          -8.16606514172220   -5.45255279391692    3.78760111464110
C          -7.08336611137131   -4.61995878801240    3.98180693770803
C          -5.93962567480274   -4.43755097763501    3.21406165796227
S          -5.67295917961875   -5.14860003465459    1.62838485655149
C          -4.14482507568006   -4.35281529685998    1.38468941702533
C          -3.87781872421227   -3.54875463557346    2.48155524114012
C          -4.86449087727231   -3.58230133616677    3.50490613672504
C          -4.40221512048176   -2.75130007934712    4.54992287084788
C          -3.18831933920344   -2.26296063085414    4.14766623222330
N          -2.86819987327467   -2.73160760304671    2.90528640071890
C          -3.36153873646287   -4.63694347051408    0.21938496489234
C          -3.53338999436073   -5.84157686167766   -0.42786916682664
C          -2.70568044057227   -6.18004140469008   -1.51042798965873
C          -2.62456076578691   -7.34404532583179   -2.26278536425796
C          -3.42848006045437   -8.59722216598656   -2.16039696582440
C          -3.51530877597127   -9.16916677652323   -0.72407818939258
N          -4.59143379948782   -8.59171278664397    0.06522783424752
C          -4.82619772797400   -8.38856024757475   -2.77676595459132
N          -4.68265106022461   -8.14617916009844   -4.20304632745687
C          -1.58630048761585   -7.12386929973762   -3.24485946140281
C          -1.11323479326266   -7.91550360844667   -4.22513349253424
C          -0.01842170500939   -7.47115597380558   -5.13011258312501
C           0.48444132656377   -6.08150997430568   -4.86644609236214
C          -0.00352977809810   -5.30203287126755   -3.88485569778413
C          -1.03539312071727   -5.77555238821390   -3.03979117986615
C          -1.71688088487775   -5.21557571891708   -1.98036804929078
C          -1.60477734954768   -3.96401556872224   -1.32770071185113
C          -2.38804057347667   -3.69339813942494   -0.25427854069808
C          -0.46304635590543   -7.53785328420697   -6.56658950749470
C           0.33124207665898   -7.94147159811023   -7.56638619263665
C          -0.04771682517220   -7.97335679440552   -8.94045153359485
S          -1.65319879507520   -7.58835196761082   -9.48268341172284
C          -1.26091147068524   -7.89159882775587  -11.17343476506474
C           0.08942393454353   -8.26841227563887  -11.24956989896078
C           0.77389069784428   -8.32239725040402  -10.01125967213977
C           2.10865640856036   -8.72147981362505  -10.30210187335905
C           2.17318122540633   -8.88646472084761  -11.65347331399626
N           0.95564495541410   -8.61410214227934  -12.22920289399239
C          -2.09179679478133   -7.80926629788895  -12.28152936807285
C          -3.42845386496103   -7.48131926709349  -12.38266387200799
C          -4.19565210631866   -7.45070602240497  -13.60320401414624
C          -3.75665318557158   -7.72164746483863  -14.87801117451601
C          -4.57434379260881   -7.67221048562840  -16.02513966103233
N          -5.17958685702780   -7.64934978093517  -17.00060819735713
C          -2.44149128252771   -8.08518093476018  -15.22495833419559
N          -1.38670818433512   -8.38669917126832  -15.57140133598893
C          -5.56443150186611   -7.07368829630404  -13.24561967427259
C          -5.63054796408620   -6.87667823567228  -11.85510076473069
C          -4.29568988045998   -7.11896259724473  -11.26498428416172
O          -3.99752140590953   -7.02832492335205  -10.08646131995980
C          -6.80258017705987   -6.51683144423516  -11.22544872441333
C          -7.94253081588658   -6.34747300301214  -12.00324458531455
C          -7.88648773554933   -6.53921446896568  -13.38624813306848
C          -6.70047615444710   -6.90293151210154  -14.01721425887015
Cl         -9.30179850917463   -6.32579033940688  -14.33672311475692
Cl         -9.42369356843296   -5.90082230923774  -11.25614191723999
H         -12.33852693702526   -5.22377303605567    4.43636922273429
H         -10.04284235139127   -8.34967245933299    1.31680576136457
H          -7.19885099232741   -3.91982232502012    4.80400267712243
H          -4.89558637091459   -2.54553329687458    5.47752824495674
H          -2.52219013992083   -1.60202816109026    4.66844786603355
H          -2.00079606439106   -2.56343845006350    2.42528467669537
H          -4.25265388602780   -6.56739560927523   -0.07424021535354
H          -2.93125339168269   -9.35404131681634   -2.77441087009209
H          -2.57275977919983   -8.95346461237792   -0.21356538704135
H          -3.60825361449609  -10.26310522914651   -0.80965857657304
H          -4.45580517081233   -8.80149004612662    1.04799412184025
H          -5.48922175465673   -8.97747652232299   -0.20744550959391
H          -5.33416907578333   -7.57518376719116   -2.23832165438405
H          -5.40889627510816   -9.30560740169891   -2.65556768047821
H          -4.22474019526183   -7.25393500595668   -4.36043744357199
H          -5.59193698573750   -8.11200829992709   -4.65000179905758
H          -1.52009479349281   -8.89927670648271   -4.41215391785116
H           0.82416964668569   -8.16925955586347   -5.00726444719100
H           1.26369495253514   -5.73384536341873   -5.52717579617589
H           0.38735745262275   -4.30666556673736   -3.72892006539242
H          -0.89212073612597   -3.23720704832267   -1.68983489375913
H          -2.32554619655970   -2.73242033598552    0.23493757225614
H          -1.46372935400609   -7.18607964484057   -6.77273448716743
H           1.34109356171857   -8.27386490155126   -7.35772785683221
H           2.90745867562653   -8.86382951094453   -9.60336188103719
H           3.00631177967573   -9.18106530483142  -12.26129725233154
H           0.75463728110704   -8.66843266400543  -13.21482497865735
H          -1.58885223334813   -8.05531745599041  -13.20765532246929
H          -6.83255310522450   -6.37161405919321  -10.15730731230240
H          -6.69679516358090   -7.04260261883872  -15.08566861690669
