83
 SCF done       -180.778792156437          0.000697656136
C           2.15002251416138   -2.78840432994218   -1.50526409561523
C           2.08194351843794   -3.86631498770168   -2.34203494658357
C           2.05727070489308   -3.76647451568767   -3.74838347480459
N           2.02400281587308   -3.72994412946441   -4.89475381834888
C           2.17067915442704   -5.20329172490044   -1.89461568515622
N           2.37899446695207   -6.29305029445994   -1.60017723543336
C           2.42071991727906   -1.40881387196011   -1.90364189185704
C           2.88340219577744   -0.69249605754044   -0.78288686952676
C           3.25852721993165    0.63291225610511   -0.87579946883504
C           3.16018170200850    1.26160678603746   -2.11068692075860
C           2.69028097788033    0.55894080093297   -3.22650164019207
C           2.32242342254205   -0.77896928370809   -3.13267584783195
Cl          2.56130198083691    1.35472612628338   -4.74193465865947
Cl          3.61398817288146    2.91068210560083   -2.26469494374461
C           2.86007481752859   -1.56711345591246    0.40928769276778
O           3.21901090766789   -1.30672855313887    1.53468389827340
C           2.23022532921394   -2.82879133671375   -0.05900506442095
C           1.70793414730807   -3.70097958037987    0.84567359880823
C           0.74853478342971   -4.70660787543852    0.60747623169719
N           0.36009335163852   -5.59626503808293    1.62595074507412
C          -0.59878366131506   -6.35500508322502    1.08150896480510
N          -1.46722008761021   -7.36004250619377    1.27341459034359
C          -2.15651690869530   -7.48467910974303    0.05203756783742
N          -1.75740424664637   -6.61185430107594   -0.85140347598230
C          -0.78854672371568   -5.89316205622711   -0.25173886782327
N           0.05593934281559   -4.88579148686276   -0.50720379304001
C          -3.17272475825222   -8.45512035249320   -0.12988229672582
C          -3.80037842347272   -8.61613472567063   -1.32101247447862
C          -4.83697418300834   -9.53943564647866   -1.57320945930599
S          -5.53655636514927  -10.57756307824945   -0.34277762952852
C          -6.67190173891937  -11.30356322998052   -1.43112980493134
C          -6.51891444928486  -10.77559532794602   -2.71703944034769
C          -5.48716555771711   -9.78556959053582   -2.77484862343712
N          -5.40733064001838   -9.32454217842592   -4.04989283707829
C          -6.34895672170778   -9.98888246252042   -4.79331634090999
N          -6.49445579157523   -9.71110910861903   -6.16546650381318
O          -5.75250943581947   -8.86439501199105   -6.63232975833051
O          -7.34202424554473  -10.32750090277987   -6.78030816012990
C          -7.05393166113789  -10.88657924844811   -4.01893406336053
C          -7.58003779666034  -12.26317101546078   -0.94009228923586
N          -8.53916359005751  -12.88765622810524   -1.75942167251333
C          -9.21344470128914  -13.70403876440315   -0.93497048844948
N         -10.20470066408617  -14.59394578250348   -0.83120155761565
C         -10.22078902510763  -14.96730020770518    0.52839891668799
N          -9.28848039518967  -14.34436305002556    1.23331246495698
C          -8.64472305506123  -13.55443850715259    0.36398857530444
N          -7.63970941956426  -12.65781549142161    0.31692938627341
C         -11.13705697032348  -15.89582036384100    1.06319101174902
C         -12.09471208697633  -16.54189476398468    0.34025775020156
C         -12.99133010383051  -17.46262784120165    0.91606072685243
C         -13.95124600823783  -18.14155614544559    0.21037315925039
C         -14.89863137948387  -19.10700445235219    0.73279865844866
C         -15.07234219954804  -19.47477886587942    2.04139531947543
C         -16.02234864853431  -20.42309609041088    2.47785719444646
N         -16.76922736633804  -21.18504887864629    2.90075485150992
C         -14.35061825790483  -18.96491857028694    3.14171421508955
N         -13.81594874045118  -18.59875465106099    4.08951001466139
C         -15.67011287805805  -19.62276514320848   -0.39715190310457
C         -15.24263849399760  -18.98033334089386   -1.57215366714371
C         -14.16493355764269  -18.02315990497563   -1.25040811275451
O         -13.58749045118400  -17.30157385464528   -2.04004352817570
C         -15.79642042752238  -19.26700168789181   -2.80323919897316
C         -16.80185589122672  -20.22323672014904   -2.86706272774103
C         -17.23265894016010  -20.87055046688690   -1.70322339259837
C         -16.67345266103598  -20.57560172349275   -0.46430063005530
Cl        -18.47292001615248  -22.05398003464782   -1.79546191018812
Cl        -17.51463648444108  -20.61198377238998   -4.38001044787183
H           3.61806017984009    1.16558952271361   -0.00959987388685
H           1.96060823202536   -1.29240718700167   -4.00864956157065
H           1.98861279427009   -3.53424742819638    1.87984731175495
H           0.78035439336127   -5.65554574299464    2.53927781521883
H          -1.60610012371103   -7.93731239725358    2.08631208224418
H          -3.43850030897799   -9.07206531641329    0.71713790248582
H          -3.48415617517351   -7.98656842381490   -2.14082950257581
H          -4.78592693479310   -8.62859345078079   -4.43244801504941
H          -7.83705510118366  -11.51569071020521   -4.39042264235016
H          -8.66431296222227  -12.72993439431867   -2.74466038280889
H         -10.82488660142265  -14.94640391100442   -1.54224954204820
H         -11.03523159427578  -16.07454983697766    2.12417752870400
H         -12.19673304964502  -16.36647402008746   -0.71988093985054
H         -12.89517271737231  -17.63654237720637    1.97933602713575
H         -15.45385967658867  -18.76094369659848   -3.69206601957938
H         -17.03183598800021  -21.09578194327515    0.40872389494322
