104
 SCF done       -190.608041835250          0.000667310065
C           4.64356604890596   -3.82036053643671   -2.23291244757008
C           4.34613416537053   -4.32350682919929   -0.99002152051339
C           5.30591774044322   -4.57114943818069    0.01310950497854
N           6.02945145616864   -4.79306444981652    0.87667922038568
C           3.06020445028725   -4.66506032834676   -0.52447526820564
N           2.05018007553874   -4.97288831166143   -0.06962462559976
C           5.98582426960297   -3.47095592892817   -2.69984286470267
C           5.89617111776328   -2.98738929305679   -4.01663580353900
C           7.00829878063259   -2.57671720480414   -4.72049111892641
C           8.24707930601355   -2.64978003751379   -4.09448861300984
C           8.34715098018558   -3.13000124460042   -2.78552841187305
C           7.22174370717505   -3.54320861445003   -2.07973172689761
Cl          9.88438657506195   -3.21597735762164   -2.02265260235485
Cl          9.65769358980280   -2.14675817740170   -4.93602290658497
C           4.48183937920939   -3.00892378443648   -4.45051741848347
O           4.05581276702185   -2.65926954863079   -5.53552861686119
C           3.72501766240118   -3.53248328159501   -3.31130511307355
C           2.36143238028753   -3.71057686482087   -3.26883881880699
C           1.37900165497549   -3.45561483663769   -4.22329980241712
S           1.57998514728372   -2.81578058032579   -5.85010879662520
C          -0.12179709934774   -2.85925977207941   -6.13886451859956
C          -0.81920505092383   -3.33016696398827   -5.07378767501001
C           0.01599375870368   -3.67714411277317   -3.98389670314693
C          -0.78555855073097   -4.15592243872761   -2.91484425243162
C          -2.10417129264116   -4.11737848716544   -3.27926770650174
C          -2.23950356526976   -3.58025671412203   -4.68988030185246
C          -3.23703492988720   -4.49299249285089   -2.47588029217730
C          -4.52071514938515   -4.19404041133373   -2.88065984078055
C          -5.61978710039913   -4.50714500614337   -2.05818568322171
C          -6.97569914739389   -4.25971371117081   -2.21902177441310
C          -7.62227115495328   -3.58964294169612   -3.38534075711877
C          -8.66781131190778   -4.49925062105222   -4.05687572184335
N          -8.82029960476725   -4.11028351876140   -5.44600054436256
C          -8.21563314474568   -2.22950716275166   -2.97571213298958
N          -8.64786834089329   -1.47919117899870   -4.14595932293664
C          -7.63055800501626   -4.75478603428294   -1.03110567346020
C          -8.91439190083732   -4.71761694816296   -0.62955385004346
C          -9.33540402012193   -5.22431885522539    0.71105376679402
C          -8.25574214523544   -5.91152606797404    1.48276964673843
C          -6.97531041392765   -5.94180512164356    1.07086246112712
C          -6.60198275846482   -5.34475982478395   -0.15719386117861
C          -5.38742299634640   -5.18136122209900   -0.78754069395857
C          -4.06344051362640   -5.51485738627945   -0.41482164648236
C          -3.03245540674402   -5.17362067173282   -1.22475369957881
C         -10.55715489867929   -6.09162317548364    0.56480656210188
C         -11.79825769206384   -5.61328943107183    0.70425276616814
C         -13.01238814842467   -6.35674756474641    0.56931413648793
S         -14.51792886568226   -5.48415047739574    0.47068970347097
C         -15.45561314983894   -6.93534295518719    0.33128357268423
C         -14.66164981544311   -8.02487837142498    0.36667333429598
C         -13.26613329902213   -7.71724856121104    0.50275892709738
C         -12.53815693124316   -8.93220563475561    0.57444772950911
C         -13.40318903344485   -9.99597730411467    0.47445875703897
C         -14.83106239720897   -9.50330599747808    0.32288930112437
C         -13.17185300377725  -11.38366127515714    0.54077643390934
C         -12.02200034697163  -12.13030120955040    0.61563776046415
C         -12.02355121186339  -13.57859100510719    0.74673011775389
C         -13.09311978445976  -14.38827517998039    1.03179910408822
C         -13.01063027096733  -15.79212238785863    1.15534279600398
N         -13.02154189520274  -16.93440760304526    1.26825211338910
C         -14.41835280913410  -13.96978876697665    1.27762757955047
N         -15.51753090862237  -13.72828600319523    1.50990982739179
C         -10.64730373430165  -14.04231594951589    0.59114651934975
C          -9.81138762446433  -12.92406129680691    0.44267434799536
C         -10.61851386564059  -11.68511917438598    0.48117856383183
O         -10.17487898421618  -10.55811236743210    0.39779682708004
C          -8.44645851248602  -13.04879880845924    0.28484046658855
C          -7.89948760993437  -14.32573617372299    0.27147390587070
C          -8.72473373835702  -15.44664284394017    0.41412296484086
C         -10.09969545005207  -15.31477297465438    0.57558215216762
Cl         -8.03770794500005  -17.02033354930535    0.38962459727856
Cl         -6.20511499837233  -14.52597786380065    0.07739452937412
H           6.91633032951420   -2.20849753592005   -5.73000493869664
H           7.33969875861943   -3.90715518507349   -1.07239740916284
H           1.95517672662300   -4.10641806205358   -2.34675676042460
H          -0.49765396064534   -2.52732205413295   -7.08774206349453
H          -0.39420146357807   -4.47627497948405   -1.96706059168528
H          -2.82464427250315   -2.65901786114935   -4.71626954876033
H          -2.72479237906528   -4.30439207024263   -5.34717468293589
H          -4.69665981959608   -3.69383788921780   -3.82075315124945
H          -6.85622242857245   -3.40026481770200   -4.14393565578253
H          -9.60986702359644   -4.46070211918841   -3.48570128876407
H          -8.30627156142875   -5.53291776137410   -4.03338590683209
H          -9.12744584926470   -3.14182457850580   -5.47949648868010
H          -9.52102647243476   -4.68581297708435   -5.90034424322046
H          -7.46093505251289   -1.69298526841474   -2.37438346888948
H          -9.09282364377231   -2.38241895534803   -2.34198110859830
H          -7.84692877772835   -1.25520268739394   -4.72858262902893
H          -9.07807994683108   -0.60473266690261   -3.86377260193147
H          -9.70130908041255   -4.29762127616428   -1.23902568567212
H          -9.63764758008794   -4.33083429046455    1.28424335393636
H          -8.55917477492105   -6.37011541364454    2.41137601156694
H          -6.21591300477463   -6.42442929536576    1.66854438429127
H          -3.88705799103464   -6.03127069840361    0.51705393992626
H          -2.02445225296359   -5.42703221567012   -0.93992931105885
H         -10.37236814057550   -7.12187223910334    0.30527857875983
H         -11.93858417213968   -4.56071037194523    0.92295939114684
H         -16.52048558603107   -6.86152143918660    0.23774048575227
H         -11.47712984777820   -9.01723462193116    0.70349757671874
H         -15.46646807395878   -9.87312778858869    1.13042480910501
H         -15.27033180956630   -9.83956853470133   -0.61904066305669
H         -14.09057570308577  -11.95858754839755    0.52464583521422
H          -7.82315888317634  -12.17551686635348    0.17483738751924
H         -10.70183074659397  -16.20209171106756    0.67966957491520
