110
 SCF done       -199.379007314936          0.000867639130
C         -12.72556684802772  -13.74554675219478   -0.62812556000012
C         -13.08200469217975  -12.85137577446957    0.34823322638511
C         -14.13567184262588  -11.92541484134854    0.21530664640591
N         -14.96839365734591  -11.13958009382694    0.13483005767968
C         -12.50491918082636  -12.84985838255537    1.63727582726513
N         -12.13992831681803  -12.87420742557088    2.72517602740716
C         -13.48251942780276  -14.03977360969255   -1.84284973198351
C         -13.08100716018002  -15.29768303026930   -2.33003649105537
C         -13.65504067749507  -15.85333495200208   -3.45474733232204
C         -14.64370653626863  -15.13332334115998   -4.11492320644872
C         -15.04048361812751  -13.87811589717652   -3.64124502645257
C         -14.46806334512604  -13.32470312336425   -2.50063762775992
Cl        -16.25428019193578  -12.99594208503417   -4.47627699187330
Cl        -15.37833929376561  -15.79070587470840   -5.52163507504835
C         -12.00106661657973  -15.84014854751609   -1.47243285953877
O         -11.45380271930109  -16.91454177037322   -1.55929104789033
C         -11.69182353230694  -14.74819330852293   -0.51492707788878
C         -10.53827867645790  -14.76910135688682    0.21372454452008
C          -9.86905173369744  -13.68083397027693    0.82322515062167
C          -8.88816608400753  -13.79504904642378    1.77998475121933
C          -8.43162818365612  -12.47077288426527    2.09404927301694
C          -7.56410452308468  -11.71168481547451    2.79427106121114
C          -7.82737808679289  -10.31391705259146    2.34490346166221
N          -8.77893247793386  -10.24769651347320    1.44331458368754
C          -9.19099716729187  -11.54056699982075    1.24048338977868
C         -10.04646487057836  -12.24716511236387    0.47175050865440
C          -7.08516989855978   -9.19784590080941    2.81477069623018
C          -7.37066011396672   -7.92526296510130    2.44401542283806
C          -6.64640150173074   -6.74015037181758    2.79745716035245
C          -7.17864833320958   -5.50776012404529    2.46159494945972
C          -6.47401960921357   -4.32627288334885    2.74502019613469
C          -6.78452832376918   -2.99160046205434    2.49866907620425
C          -8.05517308325097   -2.48577911488271    1.90438084682901
C          -8.74811961490394   -1.47680103201681    2.83425721071991
N          -8.79663703946582   -2.01512003134258    4.18246762426362
C          -7.82698120116129   -1.89699087732228    0.50032265458830
N          -7.48441208040458   -2.97371228803336   -0.40895757148811
C          -5.64131288559709   -2.21433582173999    2.91768402928246
C          -5.36747095292305   -0.89701854692608    2.84412415421010
C          -4.06035407710755   -0.33839100706404    3.29573588532294
C          -3.12177214532011   -1.33910706931916    3.88138929260445
C          -3.40366055622825   -2.65284621419276    3.94696215487254
C          -4.64038616925519   -3.14276051915884    3.46418968148006
C          -5.15922026202924   -4.41775083541598    3.36192389553889
C          -4.64485576106615   -5.68577404761973    3.71687419439003
C          -5.37022247605941   -6.80095345473620    3.45172486185948
C          -4.31770037301042    0.84205775224680    4.20423675657786
C          -4.14543783844809    0.81118571149432    5.52748790966742
C          -4.31769350450147    1.92959121682011    6.41285615110488
C          -4.06868617539194    1.91398849374590    7.75674561229536
C          -4.29414579139473    3.24999741405214    8.26230763767131
C          -4.23906101075431    4.08242959903801    9.31705989393399
C          -4.65727974393609    5.41605581125909    8.77386942268052
N          -4.93844554225034    5.36172734732712    7.49092489035059
C          -4.72107774114405    4.06330031182196    7.11487368215143
C          -4.73316930205120    3.28754395210491    6.00452226473683
C          -4.72748670328954    6.62734636336894    9.49640682608209
C          -4.37988049823103    6.76259492597203   10.80942889892017
C          -4.42327354636207    8.00605874787071   11.46915688759030
C          -4.04466414201975    8.20929931802917   12.77188008236816
C          -4.04458881561718    9.46684135002957   13.49184454899955
C          -4.44899315004248   10.69155867709140   13.02601307875955
C          -4.41448198121916   11.87911734454099   13.78762333439406
N          -4.42008071761258   12.88106079776674   14.34792648388174
C          -4.95589550352500   10.95826453204524   11.73656060283014
N          -5.37643292400415   11.26641274709820   10.71330568695041
C          -3.52913937783672    9.20662951549481   14.83547915735143
C          -3.23222408165314    7.83811194334100   14.95271359938882
C          -3.53962217705618    7.15160743272937   13.67984482473802
O          -3.39680101501257    5.96872910617058   13.45184702010072
C          -2.72728407846512    7.29782546129459   16.11745917858759
C          -2.50975997063015    8.14510819472585   17.19661155082927
C          -2.79984393467442    9.50972078169826   17.08931705988867
C          -3.31019668177905   10.04908844490425   15.91330449801241
Cl         -2.52375829811975   10.54790966270679   18.42914608627657
Cl         -1.88173521718472    7.51318938336233   18.66442710595555
H         -13.34267671593589  -16.82204440521691   -3.81146041195430
H         -14.79375295898889  -12.35454543391749   -2.16148777576129
H         -10.03275430198982  -15.72872247699427    0.25400322231304
H          -8.54961921040299  -14.70686340777268    2.23584472773424
H          -6.82133766127659  -11.98879219041838    3.51850231923849
H         -10.68850833356398  -11.88479405755053   -0.30803406389865
H          -6.27140070068126   -9.42149127152665    3.49028353540397
H          -8.23556556813396   -7.79216601638009    1.80727307842859
H          -8.13613016660025   -5.46063005814013    1.96374251958736
H          -8.72744461520440   -3.33951279431679    1.77578354002792
H          -9.74227065070260   -1.24449657653513    2.41398978044494
H          -8.18140690748966   -0.54377146238367    2.87742687777602
H          -9.29888963510981   -2.89681076157684    4.19138286200615
H          -9.28015206367621   -1.37591024014889    4.80332118220507
H          -7.06247522641230   -1.10424331091337    0.55307241710607
H          -8.75851514496575   -1.44656546484312    0.14505555169893
H          -6.61758966936829   -3.41584172405193   -0.12086077018974
H          -7.36733953429131   -2.62770089167357   -1.35407340140172
H          -6.07364658275234   -0.18070884384391    2.44967197937141
H          -3.57331316475717    0.07728321696242    2.39544811257555
H          -2.17920376830811   -0.94890647618447    4.23486711295165
H          -2.69018841096575   -3.35101770643319    4.36008351526593
H          -3.67579171790205   -5.75410752482411    4.18915541348069
H          -4.97163152395441   -7.76868160147506    3.71143812555153
H          -4.66723586243834    1.73633287839468    3.70930828022993
H          -3.81709161709841   -0.10632565322344    5.99876041622654
H          -3.75296902428009    1.06942241421367    8.33993990153445
H          -3.96331403495082    3.89312586050085   10.33588013279540
H          -4.98362871515648    3.57985508713245    5.00270213323248
H          -5.06074583999261    7.48957789678900    8.93291200431416
H          -4.04249536500241    5.90822513316802   11.37556657323549
H          -4.76945634727825    8.85095399372918   10.88802695585758
H          -2.50756141657101    6.24403114652105   16.18459734587803
H          -3.52055216091539   11.10494051093278   15.87030917688189
