104
 SCF done       -194.467922215627          0.000917968644
C           4.38138588974732   -3.90326633083068   -0.28729682034728
C           5.10877446321593   -4.50589475677041    0.70472927199249
C           5.43777554210132   -3.87934840461413    1.91952514954263
N           5.73908113143365   -3.40801003587633    2.92331210657749
C           5.71447252921244   -5.77144466360726    0.56840733517596
N           6.26411628848498   -6.77623470500705    0.49506027438360
C           3.89900178870947   -2.53219236337760   -0.27993117523450
C           3.51446936125768   -2.17081911217905   -1.58555448651098
C           2.99590818566599   -0.92278388669553   -1.86452585740188
C           2.85228530083583   -0.01856348390604   -0.81834772491670
C           3.24082839972257   -0.37087081009239    0.47854256630394
C           3.76583827320050   -1.62495677931576    0.75938143966737
Cl          3.07056422633031    0.75907788618370    1.75596886923554
Cl          2.18909304386013    1.53800697955619   -1.12041874414112
C           3.71781087938494   -3.32017485596932   -2.49375639416134
O           3.56089290472532   -3.36577415788845   -3.69016107994312
C           4.08965936058179   -4.45366900115188   -1.59607312577720
C           3.96078178765920   -5.72770759116302   -2.04004528968067
C           3.84295632058513   -6.94121635174965   -1.27667798495368
C           4.33981186883641   -8.17370230944728   -1.68015873201095
C           5.20045382881336   -8.58319008565311   -2.79253009832250
O           5.33049184698796   -9.76110551030052   -3.04829174789118
C           5.92192879373156   -7.50479126933550   -3.55718899582716
S           3.94375120289145   -9.42966465983998   -0.56402699830468
C           3.10930972655367   -8.32605015721265    0.43394307954306
C           3.11899460826197   -7.04553448387325   -0.04269849411811
C           2.44543935649857   -5.92456779128243    0.61482012209966
C           2.62663215670314   -5.68654280372187    1.95075690534918
C           2.10255713054350   -4.50691832659668    2.53249194292420
C           2.19216312747604   -4.00056579732708    3.81956602656204
C           2.75704789330417   -4.71307946672893    4.99848402451036
C           4.04444625196668   -4.05707699220642    5.52787908200282
N           4.73857679508602   -4.96629883876649    6.42938241646126
C           1.70479598661468   -4.85448137763108    6.13297934208208
N           2.06248884731755   -5.79707358864433    7.16465469443874
C           1.54865731646197   -2.70398657084875    3.80281912869372
C           1.36995366153572   -1.76536995951938    4.75197649573337
C           0.58297107098306   -0.52773770973811    4.49486843947362
C           0.15004489595615   -0.34158246094225    3.07486039514290
C           0.37079070725899   -1.26646453035414    2.12335868256476
C           1.04493934040202   -2.46691515032817    2.44138572253215
C           1.38774180033868   -3.56742883009019    1.68070901720452
C           1.14192833062973   -3.88991967472520    0.32990910527287
C           1.65170970119460   -5.04112540437042   -0.18068506657183
C           1.30851271697867    0.70058733281760    4.98535696497515
C           0.73201149150239    1.61368648703037    5.75898371345830
C           1.40156874244755    2.80802785278882    6.25047013936495
C           0.88240500077742    4.08370684156048    6.20409260072817
C          -0.36803817486705    4.65878662975369    5.70898519235979
O          -0.57283422470401    5.84547496236932    5.85691268392782
C          -1.34878616187491    3.75043902617548    5.01723462073660
S           1.99858774514474    5.27101697369598    6.82303947552170
C           3.16298143401372    4.07247156194195    7.09438670520985
C           2.72659942399314    2.79770376747970    6.79337081779498
C           3.57916649382467    1.66528205586224    7.02543575124902
C           3.24147326030390    0.43646397686255    7.49167496749862
C           4.15992571865452   -0.68327191131014    7.65856669757842
C           5.40244063626007   -0.80406369731793    7.09780056359894
C           6.22316530431181   -1.93943174972022    7.25871080225839
N           6.91491933370905   -2.85049333690021    7.35503864364891
C           6.00984949973622    0.14603370664419    6.24712283412542
N           6.55970168857471    0.86267287874415    5.53942020920585
C           3.46904574767013   -1.70753428544262    8.43394217410037
C           2.13966220379828   -1.29764543437082    8.64632675460216
C           1.93646398097979    0.05533231179077    8.09199872661677
O           0.93210316738691    0.72647544086185    8.17987932058711
C           1.22933016054696   -2.09832698261408    9.30773758844489
C           1.65522761117906   -3.33245586289995    9.78274962261291
C           2.98925398405774   -3.72834514434954    9.61576649118960
C           3.89971595573118   -2.92400985615047    8.94078785227791
Cl          3.51846085077584   -5.22331422146606   10.25822237558777
Cl          0.55125976427982   -4.36504920045780   10.58454508447976
H           2.70426672652664   -0.65784699096357   -2.86856066038996
H           4.04605615528682   -1.86865518316384    1.77063709778610
H           3.82429268758177   -5.82290726621881   -3.11242245397687
H           6.26656050271267   -6.71694987013591   -2.89291184251604
H           5.25370896631504   -7.07470039285163   -4.30178571094592
H           6.76536941903873   -7.95083464994295   -4.07870118545230
H           2.62318081995569   -8.67004171395193    1.32597673111499
H           3.22043224132767   -6.36848762033860    2.54279246889991
H           3.02134237127370   -5.72796035221628    4.67582676932889
H           3.79148408863335   -3.15533079715196    6.09239530901005
H           4.66349431545055   -3.75671389735557    4.66765071372240
H           5.57895465579741   -4.52381120064324    6.79137424352624
H           5.04216834848954   -5.78789422693636    5.91382145721611
H           0.74892997811140   -5.15875153060048    5.69626296078535
H           1.56141996854487   -3.88287188736999    6.61435765375891
H           3.01934418975118   -5.61115912025529    7.45968435788194
H           2.03662570368342   -6.74528231742265    6.80404094664368
H           1.76017801709944   -1.87532290027994    5.75414283354827
H          -0.33177403307345   -0.61961814482246    5.10539155889057
H          -0.36238960344501    0.58208113239763    2.85379470982271
H           0.03955232250907   -1.10526566754206    1.10756605831445
H           0.55221683536840   -3.22421930842532   -0.28290370407724
H           1.45405417937240   -5.31802924161573   -1.20573572291333
H           2.32174134412047    0.82144842201420    4.62809685952775
H          -0.29227233023616    1.48176855962814    6.07798508619277
H          -1.82889527269788    3.11075140107731    5.75573677845847
H          -0.84501979653782    3.12615702098002    4.28391452911954
H          -2.11091970110273    4.35709589161029    4.53414482553140
H           4.11379796936768    4.32973611365389    7.52100986323627
H           4.63052516119785    1.87007168451090    6.85941962065380
H           0.21190102078378   -1.76992665341101    9.45049497061617
H           4.91592747141841   -3.26326324035520    8.83510068304418
