124
 SCF done       -279.834732803074          0.000639204291
C           2.18400221787110   -3.65693949475220   -2.27288890208546
C           3.02445504729521   -4.14924582021775   -1.18949821112658
C           3.03688123873738   -3.57949288768571    0.08594599903685
C           3.85051777009601   -4.07288929050564    1.09612040958346
C           4.67580685149725   -5.16860751842303    0.85142251653630
C           4.66271077551054   -5.77190342415847   -0.40273492374229
C           3.83607279464144   -5.26567560322454   -1.39832962052972
F           3.82843627497190   -5.85309172660017   -2.59812736026470
F           5.43270612334960   -6.83356127772813   -0.64080891865533
F           5.45824850779385   -5.64556493096735    1.81628601739712
F           3.83638217772384   -3.50867067395831    2.30412606856607
F           2.21877852904039   -2.56050695122855    0.36595420637258
C           2.04032499633150   -2.35736462748396   -2.60143798023484
C           1.10691347752082   -1.94511437219197   -3.66524747063610
C          -0.19148128224696   -2.45403060840124   -3.73875403828599
C          -1.10331333402792   -2.00220888433962   -4.68714428534935
C          -0.72215127123710   -1.02835213499216   -5.60566424936271
C           0.57633453418843   -0.52645668541836   -5.57324001269662
C           1.47217983720474   -0.98603998153031   -4.61476519058851
F           2.71207505696798   -0.49624455902850   -4.61851675669983
F           0.95281791222524    0.39694225762959   -6.45604896060657
F          -1.59323111651538   -0.57966844135838   -6.50619440296059
F          -2.34456022736918   -2.48842606970483   -4.70750768724840
F          -0.59946707967043   -3.36341184576104   -2.84889425137470
C           2.83319102480761   -1.30761975318106   -1.97906162708755
N           4.07489286856199   -1.53495082163322   -1.60921293425240
C           4.53886666959826   -0.34990726652312   -1.13934415883032
C           3.51955982619244    0.69633391981622   -1.24496990838877
C           4.03817083166042    1.97368247666582   -0.73337500998338
O           3.49149586640925    3.05472430053153   -0.69796827796505
C           5.39905551501195    1.61108476946484   -0.28382319550185
C           5.66234659961056    0.18120728456403   -0.55878978304960
N           6.89953273182316   -0.17008940701589   -0.12805463575608
C           7.40422820101198    0.92203112886658    0.38833486574161
C           6.51652244381927    2.07120356894930    0.33069411407883
C           2.39744901414480    0.08498136592385   -1.75298676066057
C           1.08754316824906    0.58256333649963   -2.00380003180564
C           0.78978554132574    1.89984633515671   -2.06188660874436
C          -0.49548554013881    2.45973632356260   -2.37833340995549
C          -0.63444264772975    3.83663950954661   -2.37100948211284
C          -1.86671303285086    4.42639209181865   -2.69294875440008
C          -2.25572914661782    5.76626233870025   -2.75027389318888
C          -1.39712642959617    6.94227264820199   -2.44912618929003
C          -1.28487857482140    7.89302946702599   -3.66084385058619
N          -0.02863716432424    8.60222764123657   -3.58302742770977
C          -1.89308205026742    7.67784265481795   -1.18900484048902
N          -0.94321386097752    8.70778939018526   -0.79893155737839
C          -3.64340238265918    5.78230337043182   -3.13933095023721
C          -4.50797715383244    6.79364594827581   -3.36211573545429
C          -5.93034611642284    6.52483991992778   -3.68134506192567
C          -6.25975821271340    5.10219254230155   -3.99921941649443
C          -5.38120678218163    4.09748234686078   -3.76951065041717
C          -4.07928987079061    4.38641389491608   -3.32400245024147
C          -2.98890199337663    3.57614213641011   -3.04496686771578
C          -2.82730875212817    2.17538988479521   -3.04840381793459
C          -1.62014090179019    1.64254230498462   -2.72280245399322
C          -6.74994952877061    6.61261747451299   -2.41905554094983
C          -8.02864773087641    7.03288463651618   -2.38030191124309
C          -8.78238795539229    7.01407493401954   -1.17515183509269
N          -8.28812867350883    6.54478058746540   -0.02929300069472
C          -9.28975122379119    6.59987261134428    0.86041847430666
C         -10.51916746570482    7.11488228881252    0.23497670981064
C         -11.61954377400885    7.19621947164900    1.20434505716052
O         -12.75411861050545    7.58723294928033    1.00535552144463
C         -10.98819893807942    6.70861861360804    2.43618530399438
C          -9.57268225457218    6.35009171450342    2.18613960053296
N          -8.98395413692571    5.91752431563025    3.32236471197838
C          -9.91835168577072    5.99166655625372    4.24491201282621
C         -11.18753562764231    6.48272083925261    3.76302468083106
C         -10.19562926971565    7.41784413872716   -1.05568980266247
C         -11.09136015304695    8.01188044786034   -2.00639197565625
C         -10.79076281918869    8.95589048698304   -2.90629023874569
C         -11.82272510923985    9.58787496858903   -3.72211677782654
C         -11.48867655936602    9.83196960023301   -5.13488200013641
C         -11.95375858148589   10.95266525844168   -5.83116971062393
C         -11.61387621944715   11.19344975993151   -7.15797345845474
C         -10.78401576081371   10.30648888033091   -7.83767631107159
C         -10.29953196502666    9.18725855704502   -7.16876926051734
C         -10.64997913442802    8.96579545989038   -5.84256754618434
F         -10.16152336444072    7.86761289462392   -5.25076588696076
F          -9.49357054654879    8.32731044591621   -7.79523267547085
F         -10.45241202221282   10.52910386466174   -9.10672252439979
F         -12.07697687704999   12.27804712674839   -7.77781230717604
F         -12.72415620593877   11.85276722084327   -5.21589695759973
C         -13.04009420262106    9.90744292165360   -3.23436731110539
C         -13.43471505161750    9.87641141205712   -1.82915679131433
C         -12.63622006369066   10.38176212903556   -0.79874279028590
C         -13.06372392479453   10.39484849941127    0.52050934955212
C         -14.32170772894209    9.89842418002257    0.85300692080962
C         -15.14455622096478    9.40214843926447   -0.15322143071057
C         -14.70038923222538    9.40719711951449   -1.46901119281219
F         -15.50220138250952    8.92917669896805   -2.42910193021758
F         -16.35881724663503    8.93909717580412    0.14212763788573
F         -14.73865610879091    9.92017312339856    2.11366080481143
F         -12.26940383520732   10.89029601952738    1.47145650022104
F         -11.43496066298420   10.90163956049134   -1.08494431046880
H           1.68229969534177   -4.41977975136115   -2.85243212194870
H           8.39694227745714    0.91896027931572    0.80373857303530
H           6.74209274004973    3.05027141952652    0.70460195276512
H           0.31815528539669   -0.16187704642680   -2.14990898559455
H           1.58289976341104    2.61217600096296   -1.87603678259321
H           0.21410908120395    4.45323013557234   -2.11421424874136
H          -0.38088830234102    6.59032169652874   -2.24805901382024
H          -2.16392676291281    8.55724214788297   -3.68475281466826
H          -1.28564125710946    7.30027116162205   -4.58196634857185
H          -0.01216120073921    9.15837997769361   -2.73324533038601
H           0.10343194070162    9.20794846543349   -4.38390474426789
H          -2.06826837482553    6.92750812210955   -0.39920719898864
H          -2.84809313495012    8.16812591923777   -1.39528993806865
H          -0.06941877997008    8.28013764854620   -0.50737751065760
H          -1.30343308755803    9.23722160552447   -0.01219513422033
H          -4.22479828640243    7.82991069862526   -3.25579742342738
H          -6.31473779438056    7.21785739660298   -4.43421876438023
H          -7.25765561401656    4.90979991488711   -4.35848705433510
H          -5.65785427923300    3.07193916327886   -3.96452357864897
H          -3.66136754679530    1.54035847757232   -3.30709593255328
H          -1.50244739209209    0.56979233174335   -2.72298220064981
H          -6.29046978121316    6.24554158125134   -1.51343533335302
H          -8.53052452387694    7.37455593397005   -3.27377969869148
H          -9.70260902000070    5.69758049793977    5.25739673315593
H         -12.07031934252907    6.62342741544890    4.35458773421359
H         -12.12332865459570    7.70494138678958   -1.88822811615585
H          -9.77390286110786    9.29246917793383   -3.04970700996609
H         -13.82857643458316   10.21558475448746   -3.90660875283071
