71
 SCF done       -148.422477954449          0.000469457616
O           2.77459754008230    0.96322166546997   -7.79837921632271
C           3.53565447239230    1.60355272496826   -7.11986229529760
C           3.48014930809155    1.77063036841576   -5.67591294579869
O           4.42446678280429    2.58478557052810   -5.14644796514291
N           4.30431626967583    2.61148878737348   -3.81520144803157
C           3.31928107949313    1.82675165224783   -3.48828253539450
C           2.72111180476460    1.23829025123266   -4.63756664558685
C           1.60083043779863    0.31532677803087   -4.63597653331693
C           1.41197585224721   -0.50813751619924   -3.51208726490734
C           0.36273662221112   -1.39578298636059   -3.43397335605134
C          -0.53308897826425   -1.45797878679871   -4.49543908540079
C          -0.34154053719622   -0.62506016148749   -5.61980521997843
C           0.71483575770719    0.25895635288433   -5.71023628602567
O          -1.30962090855569   -0.81642226085661   -6.55263070193422
C          -2.13342228022578   -1.77878074658381   -6.05966691621380
C          -3.25342016961278   -2.29187723043627   -6.68118810374513
C          -3.97984491884519   -3.27067963030901   -6.00427603804685
C          -5.17523181647004   -3.85302008649997   -6.60882348349075
C          -6.31993876575593   -4.14062572805583   -5.84776272337522
N          -6.47849654290905   -3.92260476246852   -4.53566353119774
S          -7.94425183191577   -4.38823175170122   -4.10096420957568
N          -8.47537491145933   -4.88573012352461   -5.52368243027258
C          -7.51463298966064   -4.70524188068029   -6.43926288915922
C          -7.59106906189848   -5.02901692513239   -7.80437437381609
C          -8.79706034491343   -5.61883435977861   -8.37974844439280
C          -8.70316602790940   -6.62259974036496   -9.35777508223894
C          -9.82304947392147   -7.20347292916200   -9.90939071576748
C         -11.07485570267589   -6.77659419226699   -9.48077033811724
C         -11.16480141561180   -5.77321071247977   -8.49265379920237
C         -10.04773112445307   -5.19054604964510   -7.93309440326499
O         -12.46041623992257   -5.48136237077583   -8.19108486564651
C         -13.22396926069697   -6.29179471416311   -8.97183850549519
C         -14.60144941096643   -6.34277960379834   -8.99092686910277
C         -15.20715636153450   -7.23925835075347   -9.87450994436213
C         -16.65585318886541   -7.32188298825546   -9.89028780699673
C         -17.51584507302230   -7.02606716440958   -8.79542993387951
N         -18.76557364135952   -7.19657700683430   -9.11387452042186
O         -18.81288308974151   -7.58897888133699  -10.39080476020605
C         -17.55626084937315   -7.68101038340677  -10.88980398400897
C         -17.47371356364247   -8.04707008048111  -12.29476042208969
O         -16.47000344506928   -8.22549305846563  -12.93570799546367
C         -14.42478856662012   -8.05889899560015  -10.70188412414961
C         -13.04813362325534   -8.00906011642892  -10.66921734171170
C         -12.43174440739432   -7.11887525511198   -9.79770147054816
C          -6.44338822241428   -4.74438164936010   -8.56003553380485
N          -6.46975605435468   -4.98193616652102   -9.89667857199227
C          -5.42109559177999   -4.74020772765223  -10.60180888705827
F          -5.48341142853151   -4.97094401199862  -11.91189585978010
C          -4.22248520929870   -4.24639258127612  -10.00657005353726
F          -3.12862147837202   -4.05842196140338  -10.74102102535734
N          -4.16330884554823   -3.97053772335895   -8.75125217537402
C          -5.25722652643986   -4.17141993805888   -7.97274659781146
C          -3.57111419460079   -3.70238861553843   -4.73113317246704
C          -2.44806918395437   -3.19337144287204   -4.11980746539070
C          -1.71400858747130   -2.21769326001041   -4.78527092234385
H           4.39634787858164    2.14396016320997   -7.55464113794938
H           3.04197588794605    1.71378495552092   -2.46004928099795
H           2.12305423607924   -0.45834793789218   -2.70178085075763
H           0.23574178473136   -2.02982713728587   -2.57032896167844
H           0.84409559170117    0.87440474907763   -6.58350687959840
H          -3.55867036407061   -1.93373572380662   -7.64888056478299
H          -7.72641633546406   -6.95296326784206   -9.66935787116813
H          -9.73428619376473   -7.97618421464492  -10.65685801769500
H         -10.14205389997727   -4.42120333763487   -7.18605083032721
H         -15.18179042022344   -5.69050736447358   -8.35890465863571
H         -17.25131642684969   -6.72302598765935   -7.80288346337416
H         -18.47940401887948   -8.14767265163565  -12.74228198367489
H         -14.91444341268048   -8.73989516873639  -11.37733168747524
H         -12.45889697933071   -8.64599371620913  -11.30972983938073
H          -4.14970604743413   -4.46332058789817   -4.23323246854573
H          -2.14062336115307   -3.54256431458290   -3.14635971389800
