116
 SCF done       -201.301421626139          0.000907994595
C           0.69686247780706    2.24069217374347    0.89465714826465
C           0.76887594149285    2.72411880214880   -0.38492299985742
C          -0.30450006464244    3.21853291744020   -1.14722531432601
N          -1.14146273946300    3.62012164507060   -1.82222841717925
C           2.02077524081319    2.74191480478181   -1.03565194447199
N           3.04434154765445    2.75383154163894   -1.55308309898115
N          -0.39323091761042    2.16755572839177    1.70330560683872
C          -1.71454199134096    2.60282146530426    1.31827412131168
C          -0.17886483307734    1.65780120963198    2.97595401972185
O          -1.05240098571963    1.53742626999453    3.80279022861609
C           1.23216006458059    1.30848721263353    3.15485077184131
S           2.13407723851526    1.62637610419327    1.68399940151320
C           1.71020717702168    0.78149133635656    4.30512931996335
C           3.04385302050200    0.33484292734757    4.55893544296502
C           3.30906456524943   -0.84489903128915    5.20214953133175
C           4.69822827245190   -1.17535585618008    5.00218722816855
C           5.33633870565554   -2.31691394999321    5.50011911685538
N           5.88256221706435   -3.22733370733731    5.93891219869792
C           5.29150962026220   -0.18101905220222    4.26661755794163
C           4.33000097419890    0.87086848753777    4.07336660626372
C           4.58716333949870    2.18831067558011    3.76544474878452
C           5.82545768397433    2.77491687799137    3.18406179051652
C           5.47013322492320    3.96267435820568    2.60963086651381
C           4.10393765846071    4.25782921060262    2.95930181241967
C           3.59444036633300    3.21652205536759    3.69487607396705
C           3.40339190538387    5.41544078519478    2.59826570917668
N           2.80369128654954    6.34577503813341    2.29296524547132
C           7.16713707338615    2.28902678833924    3.23246987002985
C           7.70029388373891    1.61946283189064    4.27972511337102
C           9.01675389023988    1.04546972341007    4.34954809131906
C           9.25695963210328    0.09142929203919    5.32549291144090
C          10.47140522523901   -0.60595907255751    5.35129119561549
C          10.91141924669508   -1.66059930528323    6.15510124154810
C          10.24283377947831   -2.28888017615591    7.31787918536563
C           9.79184292110891   -1.24409831053909    8.36310732357620
N           9.98692652226691   -1.79997847654758    9.68818634041602
C           9.05050369565138   -3.17332772791850    6.87832488584610
N           8.39540100619919   -3.73101540204717    8.03852901916383
C          12.21811629034927   -2.02648136984407    5.67026664762425
C          13.01779416536520   -3.06184617493049    5.99369350000341
C          14.38188001469365   -3.19552299228859    5.41966086671828
C          14.71868936980022   -2.17867435525033    4.37781540306013
C          13.86294227323277   -1.21283182538679    3.98762553489116
C          12.58987712932749   -1.10315217875833    4.59408876303412
C          11.50367906172931   -0.26729423392005    4.38419087866005
C          11.26095463948431    0.75447840798841    3.44155390057199
C          10.05023351402934    1.37347361527298    3.41755878643825
C          15.31058095706775   -3.08251933740723    6.61259793960289
C          16.26780609691227   -3.95470504647759    6.92000450134543
C          17.05335081959451   -3.84703476608597    8.13309371605222
C          18.40385416700432   -3.91196891799142    8.25347193220425
C          18.76072987486021   -3.58344491024029    9.62343751635928
C          20.06439599830447   -3.46347661538898   10.11197896103675
N          21.13125889556901   -3.29827334605241   10.50616178251882
C          17.61967368748903   -3.30070805638291   10.32440331175082
C          16.50111041091588   -3.45550653226150    9.43970113381622
C          15.16051360549933   -3.35945905097445    9.75856939808941
C          14.53594949757102   -2.58830145526190   10.85254690658273
C          13.21876892232433   -2.97181269752099   10.92726694378585
C          12.97041368558556   -3.95290579810058    9.90990181562807
C          14.12398488007380   -4.14717063829295    9.17812850813866
C          11.76071839895635   -4.62063714023222    9.69337676582388
N          10.78364391266510   -5.18772256457324    9.48135790831857
C          15.15165744629177   -1.54862274581652   11.59841972006886
C          16.28152056078756   -0.89630064514128   11.21084590957255
C          17.01922619798700   -0.03647380624274   12.05356196109937
C          18.28305652714272    0.38848017402209   11.76985889683480
C          19.07149556316906    0.06922678000728   10.58157015350950
O          18.69647670627879   -0.51111653134907    9.58357433277723
N          20.37227145632426    0.52726086147823   10.72794158705142
C          20.65160485652742    1.20093356926027   11.87388238263753
C          21.84536178647529    1.75962867179239   12.25003253089027
C          23.03687917078336    1.75257517125086   11.50242144324202
N          24.03824680225138    1.79585335461535   10.94273847418668
C          21.94073619553961    2.42836255336267   13.48889137792326
N          22.02419213525595    2.97493831739325   14.49367355409632
S          19.24227769320219    1.31616311268331   12.90474351828991
C          21.34908311364818    0.23924351559163    9.70508743738296
H          -2.07373736348527    2.03592738364615    0.45903508044416
H          -1.71503102792874    3.66535912583347    1.07347610598582
H          -2.36515671264759    2.42327017749713    2.17466312774995
H           0.96215230649607    0.55638070402058    5.05789766096378
H           2.59606531897353   -1.48267103015589    5.69079390640738
H           6.30381611485891   -0.18240070222854    3.91723129244525
H           6.11208839693948    4.62900759480051    2.06478347954149
H           2.61689002201173    3.17518359133939    4.13345332866704
H           7.78922493803266    2.56939289289612    2.39257992784470
H           7.07770533982881    1.44754817077074    5.14954589600941
H           8.48165994965470   -0.15468471607168    6.03559880152810
H          10.95996778031083   -2.93713860044192    7.82873519759362
H           8.74772637153548   -0.96116113959032    8.16438624851329
H          10.41467985375547   -0.34718257892252    8.27921808480863
H           9.40084532932989   -2.62574140351903    9.77694981919792
H           9.70071522487706   -1.13175866039115   10.39606787204816
H           9.43563684145784   -3.93621689676909    6.18225839533994
H           8.32335564098187   -2.56522595607961    6.33518883387010
H           8.94484303629737   -4.48566541375055    8.44022874483135
H           7.47570800836105   -4.07597712024588    7.79262115502599
H          12.72242653076522   -3.79809387486541    6.72789437374564
H          14.51334995989241   -4.19855206772795    4.99140486907417
H          15.70320116220941   -2.26092539973557    3.94331185995446
H          14.14037246446286   -0.51092234846460    3.21483689804902
H          12.03295525436128    1.02468189958988    2.73649122974826
H           9.86120586776597    2.14658092912281    2.68953703815119
H          15.12334491752600   -2.22841968747693    7.24790284725207
H          16.51556268336667   -4.76741106332174    6.24790270563703
H          19.11708392628155   -4.12465615973769    7.47924667440247
H          17.55648043364802   -3.09863697040665   11.37618306216417
H          12.46683856712418   -2.58159689035038   11.58614103379777
H          14.26773836815099   -4.88542499023024    8.41242475498865
H          14.66853616600529   -1.27276205479832   12.52867718384936
H          16.69604638479050   -1.08337553244389   10.23256859359318
H          16.59706058007493    0.23077541370060   13.01473613414032
H          20.82278728005145   -0.29074613921763    8.91110297942131
H          22.14022673776416   -0.39893560931284   10.09982303255229
H          21.78214299318533    1.15838055614541    9.31106721994548
