80
 SCF done       -161.618506051229          0.000994311067
C           8.87238526506072   -1.85063674183927    3.83974900238609
N           7.52526293414629   -1.72468550289003    3.37642594868090
N           6.63520098595314   -1.04460904636462    4.04523863184962
C           5.52801738722429   -1.10970167731757    3.28999864843352
C           4.23581521037000   -0.56591660725191    3.47641618056866
C           3.84852697752915    0.24446134032437    4.59419141241747
C           4.59963009511123    1.01672303437546    5.41610705553757
C           4.03227593350976    1.45187370398143    6.72714194136271
O           2.87266326191410    1.43022981475423    7.05940451228449
C           5.20638934197115    1.85265666204705    7.53404529210342
C           5.25119639848066    2.22544864106172    8.86262998315039
C           6.49888016578012    2.53337801086264    9.38461899867666
F           6.59218277067840    2.90106592794807   10.67165355987384
C           7.66004006639139    2.47335099298379    8.62633061081046
C           7.60131318175011    2.10658513093692    7.29105898061699
C           6.36697620081673    1.79601294365283    6.73852815885032
C           5.98733577902354    1.43069014101373    5.37794062409845
C           6.73629189010959    1.63897102285809    4.25318321809719
C           6.21044807256168    1.56925233930023    2.94558435069570
N           5.82217380283174    1.56649018091668    1.86591428957789
C           8.10768319833416    1.95916556921510    4.26490025891078
N           9.23986410017075    2.14327393329907    4.21107515422981
C           3.30073871404802   -0.90188007839276    2.50105725339685
C           3.61169319397927   -1.65321137380843    1.37137405091340
C           4.88370299599111   -2.16547848036955    1.14203940224003
C           5.22862736326137   -2.91479479039095   -0.03572082104396
C           6.43901561392883   -3.39786292219326   -0.38233621595002
C           6.34779845975521   -4.08592835228853   -1.67804328296697
O           7.21019828304680   -4.63628351060632   -2.31018962719085
N           5.00664766145610   -3.96461073350584   -2.07606806114160
C           4.49349939630029   -4.44434958045727   -3.28618841275424
C           4.88662203819107   -5.65364971970776   -3.82533787124453
C           4.36811899548291   -6.11892788193898   -5.03275180550916
C           3.39124285326546   -5.44514263235522   -5.75893630120944
C           2.90640871839257   -5.99912002247332   -6.98771083006322
C           1.76755149720065   -5.74170523317568   -7.67826188901779
C           1.68421697670684   -6.12724067373036   -9.11536485838587
O           2.41278875382425   -6.88376487220335   -9.71159963235299
C           0.55491129041053   -5.33680810758777   -9.65642761910021
C           0.12453751097314   -5.23414248185080  -10.96412621651881
C          -0.95672333410324   -4.39928862035399  -11.20336133546989
F          -1.41027725996460   -4.26631421815035  -12.46091421994216
C          -1.59020040474482   -3.69131688223330  -10.19194276218860
C          -1.15401167945502   -3.80901016516451   -8.88135422886804
C          -0.07451444078285   -4.63691564963237   -8.60953048049713
C           0.57306963147910   -4.99329426587777   -7.35089837921222
C           0.04120860357999   -4.83760502306989   -6.10023551770059
C           0.54903883504943   -5.49983450140831   -4.96228510866573
N           0.89558330985527   -6.06403555308137   -4.02539091708907
C          -1.08473644931066   -4.04267362246811   -5.81492426865133
N          -1.95504267952079   -3.35358671929407   -5.52163180557733
C           3.00082327693024   -4.19132121391195   -5.23274924533545
N           2.16707057263455   -3.24794862880144   -5.69521781536925
N           2.24017039471877   -2.28665643871219   -4.81212294520494
C           1.45587232339344   -1.09735462537058   -4.93551077908773
N           3.04006871660741   -2.47180477843196   -3.80844031403185
C           3.55944373396547   -3.69165046634175   -4.01684637108482
C           4.25195820495419   -3.29780753436176   -1.11394302554938
O           3.06364887056700   -3.13671774826259   -1.15020778035849
C           5.84768925806007   -1.89220732393357    2.13987279770077
N           7.13602240329660   -2.24986783501742    2.25166431905961
H           8.87361073335977   -2.19807594540614    4.87239953968334
H           9.37234958275829   -0.88078512103484    3.79573997056002
H           9.38709809464835   -2.56063386984022    3.19715553702180
H           2.79519271609162    0.19597636347432    4.85617543272060
H           4.35942477442847    2.27716132784413    9.46657903995381
H           8.60248740466086    2.71757408147770    9.09078890469395
H           8.50638119392828    2.05840764874150    6.70758383953164
H           2.29439270228192   -0.52401106675078    2.60545797190963
H           2.83912378367234   -1.84292365141971    0.64345689386958
H           7.35672420780342   -3.30596385677328    0.16652409319436
H           5.61777996056907   -6.25030702241507   -3.30465788359729
H           4.71204965745035   -7.07415168542185   -5.40044032169374
H           3.58604342709435   -6.68854029827812   -7.48069243263891
H           0.60443776744607   -5.77777795366081  -11.76216593525536
H          -2.42350577407186   -3.05329224712421  -10.44128639271195
H          -1.64763878072176   -3.25457988593702   -8.09977981389107
H           1.71783088879896   -0.57172857114977   -5.85442712003351
H           1.66076109619685   -0.47228709934886   -4.06979389665683
H           0.39686134049829   -1.35791769975491   -4.96893131893076
