132
 SCF done       -246.278642163694          0.000619502824
C          -1.04039363603186    2.60904028836837   -1.49222687717686
C           0.29465324101570    2.33838804034795   -1.61462624115852
C           0.87573777584976    1.71311387354844   -2.73873261317840
N           1.40018944567311    1.23354650043372   -3.63893200234809
C           1.22975367448821    2.57986899481869   -0.58333665080547
N           2.00926738372371    2.69354560466436    0.25062397732658
C          -2.10046653747437    2.14415505851724   -2.38549447982407
C          -3.33499631523240    2.23841843299152   -1.71392121412231
C          -4.51174337130672    1.84211229617022   -2.31325653941173
C          -4.46290791520076    1.34864144336978   -3.61621954572497
C          -3.24362200839144    1.28122720949964   -4.29829925908435
C          -2.05377881329332    1.66180072537118   -3.68314589074158
C          -3.17956890691585    0.82761491008146   -5.72575125888761
O          -2.49379477349517   -0.07096361722148   -6.12670907382158
O          -3.94422097931602    1.60348140762378   -6.49977393234961
C          -3.95771058560119    1.27664376702832   -7.88388167984466
C          -5.73935265108892    0.88273079062881   -4.23146894210884
O          -6.81955296371446    1.34327287202108   -3.97087855696964
O          -5.54214765988778   -0.13879915198473   -5.06924998922794
C          -6.70224414600417   -0.66151767106802   -5.70288936568166
C          -3.12492635451321    2.80924963453988   -0.36281561239312
O          -3.93906821888427    2.97548393343468    0.51106729079782
C          -1.68623601763743    3.19818202321636   -0.33612743404365
C          -1.22876583733123    4.06465667999769    0.60414583169100
C          -0.05175826399450    4.85507378562301    0.56153655941537
C           0.63377984977020    5.37172981143705   -0.63062333184929
N           1.61705677879130    6.18192998054737   -0.37047607704745
C           1.69179405706503    6.24993821804225    0.98813606720812
C           0.64650463601494    5.42873216347327    1.60194908351544
C           0.69427911441999    5.54193877554513    3.03933395280734
S          -0.34498949516607    4.82701866631845    4.09480082952038
C           1.77659469022400    6.45977948562381    3.28790362017279
C           2.36625046513137    6.88416078134115    2.00347926801158
N           3.34087947518971    7.81259770860755    2.20335533040490
C           3.36234141887065    8.02340543813620    3.48842357019007
C           2.40398718742493    7.22086759964461    4.25233223257035
C           2.24102935668753    7.28204931279882    5.67715670536386
C           2.51167029036873    8.46483848626017    6.34422760973494
C           2.29022590905394    8.55669648509347    7.72606652924399
C           2.42579674239047    9.61795315516437    8.62271861013510
C           2.83992181343091   11.03382665190638    8.42963353551009
C           3.79465092557004   11.29603255924547    7.25575881564025
N           4.81989260866611   10.26911312485650    7.16714717364880
C           1.58696268395088   11.93207720736286    8.27495036464929
N           1.99105943328532   13.31896867571267    8.19399051571361
C           2.02126408934279    9.11680512163879    9.91710906876482
C           1.88765210743800    9.74481083897303   11.10119357801132
C           1.43778232722524    9.01286962504428   12.31929844278439
C           1.18215016800738    7.55892285364248   12.11764460770573
C           1.27361719428562    6.95879300422066   10.91403617303156
C           1.67113687973518    7.70161891941186    9.77798047062214
C           1.82354214834586    7.37531818851558    8.44007798469290
C           1.59006318859216    6.17388148609986    7.73890148003097
C           1.78143343297403    6.13574224983998    6.39311055905719
C           2.46356523977841    9.34719910199509   13.37182447668310
C           3.37478526097686    8.51283016777297   13.87863912909838
C           4.38189392246923    8.95996267227042   14.79588386446821
C           5.16623280993138    8.08343639858854   15.66363878706546
N           6.02859838834410    8.70269760991851   16.42230560591156
C           5.90603411124326   10.01906430571678   16.10974277238078
C           4.85396973172057   10.22094251808467   15.09044911715305
C           4.80355621750850   11.61447803214736   14.72183015532095
S           3.91549762065520   12.36258470326894   13.55581783299060
C           5.78888802354603   12.24252704713932   15.56125574013640
C           6.46456623853941   11.24189816277784   16.39493013090688
N           7.41768993735868   11.83037658286142   17.16709621952329
C           7.41380023665701   13.08962999475362   16.83630930187100
C           6.41872141095997   13.44220280372905   15.81861281115879
C           6.12256684690703   14.73598530314686   15.31699007568641
C           6.96770260727572   15.79371572263674   15.20788126508826
C           8.41095753044478   15.87695684984888   15.30824449361623
C           9.29763095758366   14.88377763153695   14.99283920247461
C          10.69974713165441   15.03377627345210   15.04889921253806
N          11.84364755790458   15.10208731400845   15.09924656006074
C           8.90512645708817   13.63118126515886   14.47120853668661
N           8.63656179875117   12.63505064745478   13.96896377469195
C           8.74463374488823   17.27979020757343   15.55010113649211
C           7.58530626726247   18.06001051559808   15.37302818708385
C           6.43429773615273   17.17768330844461   15.06975111393955
O           5.29859201018082   17.49643740481518   14.81517371399227
C           7.61220633424192   19.43582968254077   15.49024315372328
C           8.82054183911991   20.04642085604096   15.80648825795824
C           9.97161330389469   19.27556950015687   16.00110209580031
C           9.94539238394196   17.88758195340226   15.87039463743214
C          11.22622748246015   19.98880387979910   16.37235069990060
O          11.25655510477967   21.14462988067647   16.71687139731097
O          12.29913348204504   19.20765067115538   16.28799043005574
C          13.54375930756230   19.81269948327209   16.61342697271715
C           8.90780729865533   21.54864551000233   15.86819192842068
O           9.21083127339122   22.22854557386355   14.92605298163629
O           8.51719935584070   22.00050646904429   17.05517766370804
C           8.61989554199737   23.40706810904029   17.24566428540750
H          -5.45515189708255    1.90865690886201   -1.79299339538078
H          -1.12825762495193    1.58802833974494   -4.23260217623932
H          -2.94825969494910    1.33451609934508   -8.29555518843091
H          -4.60855942924165    2.00465451628388   -8.36094590619764
H          -4.33827716581903    0.26357024451250   -8.02679492637717
H          -7.11861527765509    0.07569982143469   -6.39254262616268
H          -7.45895190575463   -0.91195706304067   -4.95691213804417
H          -6.38083181238323   -1.55125684632969   -6.23796611788906
H          -1.88304292612116    4.22958146577764    1.45594418302298
H           0.34626173212874    5.17375735046400   -1.64855812376845
H           4.07630555192183    8.70545999070978    3.91624516718968
H           2.85507547749456    9.32244747839503    5.79519985926493
H           3.34916787140676   11.35162680303714    9.34850401342040
H           4.19529996698873   12.31170670265360    7.39326093011318
H           3.23573193696650   11.30323312884920    6.31647596405142
H           5.34558442190866   10.22161597487416    8.03391630229905
H           5.47374431242467   10.49246931219051    6.42475006026855
H           0.89912788512725   11.71794876876136    9.11059227552848
H           1.07723296084834   11.66922156416836    7.34426755304149
H           2.34412309937224   13.64669958357623    9.08643704746842
H           1.21766562482026   13.91138959581062    7.91936859983395
H           2.12929039501641   10.79008285182370   11.23416472727028
H           0.49350881128416    9.47553204380079   12.65346568542818
H           0.88284433373237    7.00607445399409   12.99533029637943
H           1.04990818801308    5.90817015760545   10.80255325837601
H           1.25416834226735    5.29848062683102    8.27379114173188
H           1.60308362018251    5.22705026813495    5.84145205754399
H           2.47223872621059   10.38565634232947   13.66967470504503
H           3.38184109676334    7.46159130688704   13.62350269460368
H           5.05970692562092    7.01357446638413   15.71582743463542
H           8.05772762555182   13.78800902240210   17.34259594599445
H           5.08747249958864   14.92470340240628   15.04785752917472
H           6.71513042636912   20.01501444547032   15.33469288240899
H          10.84997874038371   17.32400546463581   16.03123144361403
H          13.54067707900545   20.14922181221608   17.65222743060068
H          13.72606936314841   20.67212061880320   15.96531304321932
H          14.29935156315189   19.04683855493075   16.45935129654432
H           8.10299161794730   23.93721181655143   16.44362459828289
H           9.67167739304563   23.69731685879675   17.24660559899299
H           8.16147260176464   23.61793722907288   18.20810588494816
