116
 SCF done       -219.007073406025          0.000970843406
C           4.41419843321150   -3.88153135471993   -9.19065192747915
O           4.43189531434750   -2.79753303583662   -9.70893553878070
C           5.20331327135327   -5.07344306086043   -9.59148991470017
C           4.69436747474044   -6.22018221742356   -8.95457071181917
C           5.27529496636625   -7.45602579882031   -9.19280457840799
C           6.35419373213654   -7.52529514003415  -10.06569116596179
C           6.84805021345111   -6.38221926834175  -10.70090373396604
C           6.26630315644137   -5.14228696779682  -10.46717724993512
Br          8.31031545771561   -6.50955666978367  -11.88860482780185
Br          7.15573440816390   -9.20669389780890  -10.38416587643057
C           3.56524062668306   -5.83468712596800   -8.11555876558461
C           2.67251941255241   -6.68700575099471   -7.52243350591822
C           2.76699643719037   -8.09444447100557   -7.58627404154439
N           2.79994164636173   -9.24085109915675   -7.60337090027113
C           1.50998684525213   -6.27828592727728   -6.83397173763981
N           0.53475959078861   -6.00812962372367   -6.29075711506575
C           3.51794599151459   -4.38034121109181   -8.10200213654626
C           2.80582940245415   -3.62939011379563   -7.22732771501965
C           2.80996331384635   -2.20976353342039   -7.09639306662321
N           3.85294026274795   -1.44277688559436   -7.35176726760943
C           3.46506945121582   -0.18506045091296   -7.05516744510660
C           2.07771427172676   -0.14929005966190   -6.57748884280341
C           1.67649768556418    1.23081447435072   -6.27047066086277
O           0.60742130491343    1.63792596981794   -5.86165944848575
C           2.89506927769271    2.00103298643027   -6.58118650573476
C           3.96556143351658    1.09773671386039   -7.05245301979910
N           5.09115592095196    1.79575604286165   -7.33384769513151
C           4.79264050897535    3.04641157158335   -7.07806280752557
C           3.43571511669597    3.24599014532329   -6.60433931792439
C           1.64197845889114   -1.45449691426158   -6.58145779445430
C           0.39202172607259   -2.03298175173218   -6.22559545233520
C          -0.64834192498885   -1.29209071476369   -5.77736077152196
C          -1.94335269704956   -1.77697127686530   -5.39244826357083
C          -2.90913147100647   -0.83867805497174   -5.06219150651563
C          -4.19954768561241   -1.24179303526671   -4.68901061269859
C          -5.33696400472266   -0.51163496442109   -4.32876191800472
C          -5.50631875603915    0.96253166361931   -4.21805205871018
C          -4.56862982284254    1.55855980964771   -3.15084846033648
N          -4.94412285359426    1.02812793368456   -1.85299184344119
C          -5.32282482293884    1.65006006381571   -5.58507117111759
N          -6.40009635257313    1.23072468011013   -6.46214926036358
C          -6.37808046692194   -1.47086665433814   -4.06630322826536
C          -7.66040703574418   -1.29949209874885   -3.69070639270935
C          -8.57600885075216   -2.46359933691020   -3.52424273508603
C          -7.92271480786683   -3.79910881190647   -3.64940789854371
C          -6.63425075256135   -3.95163077533171   -4.02035533945004
C          -5.82560293725023   -2.81846720619564   -4.25955120429648
C          -4.50328508337927   -2.66507682653977   -4.64593087151739
C          -3.50151008766304   -3.60331364377762   -4.97508210392221
C          -2.26419476900086   -3.17036138049257   -5.33790209512882
C          -9.59996146209981   -2.31292398712448   -4.62160815459837
C         -10.77068867273520   -1.67502686872709   -4.48352217208327
C         -11.68701315217070   -1.55440489641432   -5.57436353601095
N         -11.52630845072712   -2.24252175943117   -6.69495039217644
C         -12.55975266885283   -1.90709163477882   -7.48828695559529
C         -13.42717921645633   -0.90785294578288   -6.84641335250402
C         -14.55716250503667   -0.56629895688284   -7.72993789547671
O         -15.43962984986701    0.24888954291729   -7.54842167277019
C         -14.33856083572032   -1.44068795664466   -8.88903980516587
C         -13.10046327424064   -2.23109802792044   -8.71156442411998
N         -12.89505985332056   -3.04118749424832   -9.77424239247333
C         -13.90990726607188   -2.81786270792894  -10.57776645864773
C         -14.85039929420724   -1.83456575638886  -10.08465094370872
C         -12.88127792115121   -0.68080483014400   -5.60320786874110
C         -13.31879571683475    0.18420540477167   -4.56256058497182
C         -14.39450898968724    0.99542082820882   -4.71502389625427
C         -14.88288488903973    1.87691035192762   -3.72157229357209
C         -16.06599153158730    2.54603376313884   -3.80033260430208
C         -16.32771685311429    3.75156665755549   -2.97355222136073
O         -15.72730497600544    4.10979737000159   -1.98830275677967
C         -17.43726324658470    4.44669103817823   -3.66610773406463
C         -17.89211193319142    3.65979023250359   -4.74185806221370
C         -17.15452860853389    2.39795338458150   -4.74858629885224
C         -17.55564088248138    1.24028986702243   -5.35526546230389
C         -16.99737174700859   -0.02883086090591   -5.07938530896886
N         -16.63644121685208   -1.08656424671156   -4.82070100645687
C         -18.66189876913824    1.15962571153625   -6.22855454257654
N         -19.55381482335420    1.05854315862798   -6.94269979085147
C         -18.90187739510592    4.13110879661210   -5.56305897011218
C         -19.44847708811893    5.38056807027969   -5.29326733338240
C         -19.00303095028347    6.14871700572577   -4.21494894048047
C         -17.98674518530809    5.68211494437624   -3.39140220957142
Br        -19.77185022126303    7.83971367237571   -3.86561324653353
Br        -20.81548897975396    6.03610443788765   -6.42148978477346
H           4.92102432685101   -8.35767649705337   -8.71939752708231
H           6.63729240674710   -4.25293321407602  -10.95260290691337
H           2.16496684108156   -4.14171028689477   -6.52133306337233
H           5.52666769223311    3.82051353927267   -7.21929785483809
H           3.00001577601056    4.18944781302713   -6.34056867570052
H           0.29817744104457   -3.10405363717857   -6.33622167401413
H          -0.51307847765533   -0.22011820096850   -5.70585550963743
H          -2.65079604430728    0.20878016431459   -5.10593915857223
H          -6.52908103618744    1.16913678159320   -3.89409783031177
H          -4.71029666028391    2.64187492124093   -3.12146543920959
H          -3.52152355736192    1.35746639643808   -3.42078874072725
H          -4.74275843322263    0.03445709545215   -1.80583060648199
H          -4.43056301434898    1.49104656808694   -1.11249399835614
H          -4.32077453726407    1.42813046164703   -5.98123290224581
H          -5.40420137535465    2.73157781275972   -5.45028308190005
H          -6.30779782672790    0.24695094101098   -6.69317117483583
H          -6.39155514147894    1.76104214592029   -7.32509704212629
H          -8.08948566131444   -0.31920810266924   -3.54482464084724
H          -9.08930833345109   -2.38222530406429   -2.55739920157411
H          -8.55779825529458   -4.65332450441188   -3.47373735980613
H          -6.20378356267481   -4.93662497295874   -4.12415880577780
H          -3.72674129101007   -4.65851530748083   -4.93713281416932
H          -1.50335834518030   -3.89305156356541   -5.58581080295123
H          -9.33943459936653   -2.72556908747128   -5.58490500889935
H         -11.05105514539703   -1.22511464090931   -3.54106553422541
H         -13.98690803539683   -3.34537366053926  -11.51265661561515
H         -15.74305693434806   -1.51682893163944  -10.58588693167809
H         -12.78920818600366    0.16093737224477   -3.61953119089315
H         -14.90422416928640    0.99334470033989   -5.66827444646362
H         -14.24925296215780    2.11037149472682   -2.87291869680083
H         -19.26300893205952    3.56430185866157   -6.40626072239787
H         -17.63328546989204    6.27053158865503   -2.55888247039578
