142
 SCF done       -258.145719946388          0.000499513710
C           2.91892102285882   -7.10218181653546   -3.78100215011786
O           3.29109926833990   -6.90779566638110   -2.64751332150780
C           3.71164746892825   -6.86759178061032   -5.00769205822523
C           2.93516525598874   -7.14889338958576   -6.14659613048200
C           3.48880854540764   -6.99925891080342   -7.40931199593442
C           4.80492647516583   -6.56703686781693   -7.51127933356843
C           5.56586916014254   -6.28229214201772   -6.37374274189348
C           5.01759885491144   -6.43434418176246   -5.10724416931669
Br          7.35072009923134   -5.68525957423642   -6.54398109732961
Br          5.56426481907874   -6.36745804970553   -9.23122664100349
C           1.61116776345500   -7.57123576261685   -5.71745629980216
C           0.52305324924838   -7.76619657655772   -6.52643459570571
C           0.56101106686548   -7.65889328403872   -7.93287938407282
N           0.54774581773900   -7.59775862945086   -9.07859554458812
C          -0.77427163432289   -8.07193189354984   -6.06503910461418
N          -1.85831460916612   -8.30332915554472   -5.76401546618891
C           1.62447577417882   -7.65816590013112   -4.26334501016507
C           0.71938932996962   -8.35714631579832   -3.53444734453955
C           0.64593811536057   -8.48401384391532   -2.10084869542440
C           0.23705226411523   -9.71085042895279   -1.54479792913800
C          -0.11781075220701  -10.88328958150437   -2.40575136937979
O           0.58973206723519  -11.86597225008933   -2.46966246472023
C          -1.40011613969682  -10.78193538818724   -3.11223162668856
C          -2.35825408998569   -9.82636716756323   -2.87918208854479
S          -3.77433585523599  -10.08317620045735   -3.78907069564077
C          -3.10926127680885  -11.50516132071076   -4.49230357991460
C          -1.84709069883870  -11.75846557163457   -4.06051642430915
C          -1.03208674001993  -12.93228860049118   -4.48987797961194
O          -1.42298417499124  -14.06547553990231   -4.33408361177649
C           0.26262257516658  -12.60281309879583   -5.13244665185062
C           0.44335183209785  -11.41618918696657   -5.83816986756719
C           1.65822098954484  -11.15295931285454   -6.44336056982110
C           2.70257121316564  -12.05675955041113   -6.33242635002546
C           2.52511356549242  -13.24092193457833   -5.63503011059435
C           1.30640122061766  -13.52071606014839   -5.04872991483706
C           0.24005301653099   -9.87188954802215   -0.16783316440543
C           0.58949793728037   -8.82415379085253    0.66417503475567
C           0.94428359165745   -7.58277415669951    0.13401451889556
C           0.96633222941426   -7.42884013749713   -1.24696726905269
C           1.31276734627431   -6.46497472683610    1.01036180961328
C           0.63706562822165   -6.23720758765229    2.18088737548003
C           1.01160636412407   -5.16028244502431    3.01156976518774
C           0.50227907684827   -4.72642676217200    4.22910565677395
C          -0.59397439718383   -5.38376352478359    4.98990436930804
C          -0.02339637132702   -6.21370035158329    6.15637324054550
N           0.77780646248223   -7.31258756627358    5.64696121692227
C          -1.66992567856727   -4.42182484349372    5.52622485321483
N          -2.87142751856160   -5.18563394153790    5.81687427626539
C           1.29742343120345   -3.58765537109777    4.63020601385566
C           1.26079272314463   -2.79677761379022    5.72051703411167
C           2.22360170659899   -1.67721693508500    5.91150350622666
C           3.20446986754324   -1.49455019071850    4.80082570219627
C           3.22840573004082   -2.28903457935659    3.71269068249224
C           2.30246933402978   -3.34705116423581    3.58334631245228
C           2.11816204970084   -4.31202531607232    2.60578950479323
C           2.79464043322211   -4.57430988081159    1.39602142964705
C           2.39771545008869   -5.62098140321162    0.62237446935240
C           2.95689972235683   -1.90069876792355    7.21341898773086
C           2.92351697077572   -1.03513878146853    8.21971748886692
C           3.53828490745095   -1.22216867327746    9.53230770490592
C           3.98037070667255   -0.11699710071324   10.27896264890315
C           4.06388947046379    1.21991230921283    9.63517444525684
O           3.69064717694693    2.24686629241982   10.15354138777045
C           4.67800514368458    1.18277210803328    8.28426385417093
C           5.79833285549917    0.47284673047155    7.96091457971444
S           6.25684005857680    0.68406355242497    6.32554121169035
C           4.90142456750676    1.71408538172657    6.04601125017517
C           4.16542818388984    1.91135269631742    7.16780030842906
C           2.84972204931996    2.62247707384560    7.24739564927838
O           1.83287424847286    2.01548913874114    6.97877631246967
C           2.88135534460674    4.01912131328741    7.69925171948371
C           1.67210412190641    4.67346277745223    7.94052440176723
C           1.66641525537375    5.97891925740378    8.38782383270281
C           2.86558549828579    6.64339867429385    8.59528446361231
C           4.07077880847313    6.00073570968634    8.35515920356978
C           4.08392644682522    4.69341689596510    7.91100948200222
C           4.36880867625043   -0.28003610903234   11.60339798967833
C           4.34522316546939   -1.52682814202453   12.19443888071305
C           3.91923727129169   -2.64126333231302   11.46576075595830
C           3.55259272778407   -2.47287941784705   10.12895900888958
C           3.84964677355706   -3.94016934204101   12.09659829524086
C           2.98904115850764   -4.94868132274924   11.82490389023998
C           3.29638715220873   -6.33015673368429   12.29655320319113
O           4.10031537003750   -6.65261454553087   13.13669798190720
C           2.45092839024954   -7.21090933082636   11.46142772224187
C           1.60819477631110   -6.42540587298747   10.64900820177700
C           1.82101763558278   -5.02067617084073   10.96113021140966
C           0.95900493334970   -3.99323879685548   10.66521151503295
C           1.01893508506160   -2.72922464511999   11.28902324292036
N           0.96772999148838   -1.71830702399666   11.82979060082070
C          -0.08554154649398   -4.08450530048942    9.72886978390492
N          -0.89677767153454   -4.08616496221555    8.91514257069909
C           0.73029685788332   -7.04221331975250    9.76980542814206
C           0.71468709106947   -8.42898692894326    9.71236905457365
C           1.54772919873200   -9.20170739769423   10.52645331026719
C           2.42381622132779   -8.58914925592546   11.41351055911938
Br          1.49519768712674  -11.09049501900681   10.42866499177845
Br         -0.46266933248008   -9.27260513760658    8.49769244274933
H           2.93251053533835   -7.21256388047111   -8.30793545990158
H           5.59598243662993   -6.22032371369274   -4.22184380821675
H          -0.00356014027610   -8.94834716597679   -4.08248461873594
H          -2.29709671599416   -8.99456058911221   -2.20457638106275
H          -3.67871842385550  -12.06749021229031   -5.20522451470305
H          -0.37935708667926  -10.72151786298338   -5.94043214672253
H           1.79472193410111  -10.24596614328680   -7.01559440248291
H           3.65251674446077  -11.83961926217972   -6.79882886875518
H           3.33809326914754  -13.94683872391233   -5.55510477621177
H           1.14436341903516  -14.43753677727600   -4.50354201301172
H          -0.03282093879802  -10.83038182424388    0.24813664464901
H           0.60754125513977   -8.97198017842776    1.73338031119376
H           1.19375630713538   -6.46388460307167   -1.66879181204897
H          -0.19432710981949   -6.86690320307361    2.46016093325813
H          -1.09851902771672   -6.08500888990602    4.31676863578438
H          -0.88104424057736   -6.53565693631179    6.76684115589972
H           0.62591307171593   -5.57754399577433    6.76489313105581
H           0.18381283393348   -7.97552829814993    5.16018297562251
H           1.22627175667327   -7.81140933894611    6.40668313268251
H          -1.82860735845602   -3.61276333911775    4.79391968864391
H          -1.33941690014583   -3.97719892928607    6.46528660493528
H          -3.34410350605433   -5.45597017445510    4.96092927572654
H          -3.51652156613623   -4.64071642002052    6.37566655980091
H           0.55143391191226   -2.94949620912875    6.52117134796771
H           1.64863686657364   -0.74531961551337    6.02356839612638
H           3.90692229070105   -0.68457780905496    4.92278270687111
H           3.95388421028886   -2.12814516763499    2.92829518715437
H           3.62283223421684   -3.94828691865537    1.09817152535929
H           2.92015824818587   -5.85376092677897   -0.29311746723827
H           3.53802344325192   -2.81174176484092    7.26109652400411
H           2.35237948006519   -0.12237545155498    8.10761470349240
H           6.39346200626538   -0.14058594559302    8.60823902242320
H           4.73413888537764    2.12067469586714    5.06835005464116
H           0.75170414733580    4.13297052878370    7.77714512659344
H           0.72987336765686    6.48086165613066    8.57954241432489
H           2.86207766930197    7.66404437603362    8.94841201359315
H           5.00176868611279    6.52230780164407    8.52065560929744
H           5.02333641382845    4.19269510910645    7.72899334166773
H           4.69027488315962    0.58684752932073   12.16078527129542
H           4.61910190225148   -1.64201731220471   13.23183744643644
H           3.25645170363319   -3.33120837701939    9.54471956852450
H           4.60100254893752   -4.15640112559992   12.84894874621683
H           0.07121550163126   -6.47636894707615    9.13092416091316
H           3.06845764499960   -9.17513737334379   12.05001146026254
