102
 SCF done       -210.997581501953          0.000930228403
C          -3.72275247115930   -0.26314820074393    4.99546957441766
O          -3.94035086062078   -0.58551032777441    3.85012993430047
C          -4.17246472775745    0.98467651579919    5.65223342972332
C          -3.88450043962065    0.93211095839749    7.02725466896634
C          -4.24740072532288    1.99010948645845    7.84530874867980
C          -4.88411112249430    3.08563520692563    7.27388830030090
C          -5.16151654771325    3.13054904884698    5.90609687769184
C          -4.80935402745681    2.06806660368501    5.08398317339621
Br         -6.02036491748276    4.63659500898292    5.15459949512581
Br         -5.37747444606295    4.53063348865826    8.38865073597155
C          -3.19845555936840   -0.32310022779151    7.31975131241506
C          -2.66628765755761   -0.67897874501246    8.52962526473125
C          -2.78045917873854    0.09843692200652    9.70228574001737
N          -2.84567833747996    0.68818242727176   10.68443793654811
C          -1.90659166739624   -1.84529407158523    8.76783911566081
N          -1.25762645665636   -2.75390447998564    9.03348063766640
C          -3.09663828774451   -1.06695402035765    6.07732329271805
C          -2.66538054259434   -2.34894088521534    5.93627922547347
C          -2.37920433050754   -2.99017544487274    4.68866988114093
C          -2.59908181902897   -4.35016750812075    4.50710098048944
F          -3.15407920766317   -5.05372995673845    5.50465454872534
C          -2.32655919904587   -5.02344237052942    3.30978935325640
F          -2.65611060742709   -6.32661518589033    3.26640530308412
C          -1.78516049400999   -4.40192140664491    2.19270370009378
C          -1.50751789330929   -3.01837360134696    2.35555978206497
C          -1.77940149783068   -2.32591534202903    3.58761147261084
N          -1.34792216914434   -1.06935801952589    3.56131444627455
S          -0.70982102173232   -0.77021990207726    2.11888388421043
N          -0.91408185841033   -2.22135241397735    1.46748823229455
C          -1.48106398778585   -5.10169203688430    0.95232362013020
C          -0.99908883778512   -6.39048764842370    0.97364384961859
C          -0.64108810184103   -7.02508318727330   -0.23140987760940
C          -0.09609903732741   -8.28164079825507   -0.46637406869104
C           0.21590199999356   -9.31724873179104    0.55771766721862
C          -0.49738964077344  -10.65179429874028    0.25967715599077
N          -0.69912776683705  -11.36650318551983    1.50148390508468
C           1.73820909085160   -9.50006681749820    0.70686204308442
N           2.04077043961462  -10.36219723357535    1.83826164495766
C           0.10664869702771   -8.38167957797344   -1.89421654613297
C           0.65970100873311   -9.34428341087467   -2.65479510743672
C           0.80955913493154   -9.18553377853755   -4.13118069961328
C           0.20745310287137   -7.94118451379516   -4.69198190666746
C          -0.31895125338863   -6.97553491519679   -3.91556770319810
C          -0.37284908577442   -7.13483643251954   -2.51072775792848
C          -0.81488859846680   -6.31581647065970   -1.48997479416420
C          -1.33957395681889   -5.00337160689451   -1.47763983261166
C          -1.64873710374642   -4.41593246384321   -0.29374990861620
C           0.37621965848704  -10.46485760527798   -4.79715297157034
C          -0.67471569386805  -10.56936732718123   -5.61303769497172
C          -1.10362960001290  -11.76529815695107   -6.30228039223778
C          -0.66441710965083  -13.05959024550848   -6.07488347899646
F           0.20386691222023  -13.32680536117027   -5.08310544574133
C          -1.08109311043389  -14.16090275901226   -6.83793618783754
F          -0.58416559161119  -15.36017751873993   -6.48817142263376
C          -1.98611204132456  -14.07297143834644   -7.88573406994684
C          -2.51573771531456  -12.77393221825880   -8.10254198660912
C          -2.06876402085467  -11.64412572300726   -7.33719993929618
N          -2.66214365879779  -10.51747214122893   -7.72900474844730
S          -3.67244781553536  -10.85023167692441   -8.93018881963098
N          -3.41386162194041  -12.43251461175385   -9.02184619945297
C          -2.44681883368104  -15.17074898164323   -8.68352082980321
C          -1.82541887353755  -16.32380879766622   -9.03173726960827
C          -2.65322246422181  -17.45534223388747   -9.55008095596549
O          -3.80332279308738  -17.40672615062703   -9.90895575977234
C          -1.77123691410805  -18.63934484484085   -9.47373613157818
C          -0.48056860108651  -18.23969376274743   -9.08006710124002
C          -0.45298849017025  -16.78561399084334   -8.94320840525567
C           0.67739508096014  -16.01523909683592   -8.96448548835494
C           0.67094949297499  -14.60908761530460   -9.05395778456175
N           0.71585853199871  -13.46528984365916   -9.13819527119250
C           1.98795153139226  -16.54029237201874   -8.97616448214418
N           3.07220199649743  -16.91392934025882   -8.97831490932967
C           0.51164820323096  -19.18931230316839   -8.90389063418839
C           0.20113037259112  -20.52464370870927   -9.13390727745109
C          -1.07830762094595  -20.91188356490423   -9.54098745724526
C          -2.07851843811870  -19.96325102407128   -9.71168006863767
Br         -1.46770362905510  -22.73282203960417   -9.85924019164424
Br          1.54783549722564  -21.82498563440508   -8.88098480944819
H          -4.05544556836607    1.98782274549311    8.90604999477325
H          -5.02399073864839    2.08867927836383    4.02680860149571
H          -2.53742362427275   -2.96719296408092    6.81646311160448
H          -0.84412677661044   -6.90800029590252    1.90718442951650
H          -0.17380059575895   -8.97942405457131    1.52285838632939
H           0.08398316780275  -11.22191781176850   -0.48311022378477
H          -1.48046286471203  -10.44032798405866   -0.17424420973889
H           0.20521882991835  -11.56870089365176    1.91754080426729
H          -1.19178356893574  -12.23766988521050    1.34318136624561
H           2.19808581020410   -8.49951250082065    0.78891274999759
H           2.14438013592959   -9.97644542350486   -0.18945026973185
H           1.74395555428793   -9.91834732089073    2.70189254114287
H           3.04007841978278  -10.52451583700130    1.90149582334866
H           1.02853500087341  -10.26903302669526   -2.23617014864236
H           1.89879095313074   -9.11932436475250   -4.31199682988306
H           0.25988216236423   -7.83131808365168   -5.76410177753427
H          -0.71273763751759   -6.07023809687365   -4.35355646397180
H          -1.48352189537717   -4.47693083853026   -2.40917753857735
H          -2.04102404688710   -3.41277883480718   -0.26818384169077
H           0.98979688924427  -11.31967126938212   -4.55657831844121
H          -1.26949993634059   -9.69851124062599   -5.85063589063052
H          -3.46939012526747  -15.07010168710290   -9.03476622808918
H           1.50639546550452  -18.92508722284470   -8.58284298634653
H          -3.07080570235781  -20.25249673207977  -10.02129561741097
