124
 SCF done       -225.611657325971          0.000777405652
C          -1.68389985935475   -1.74807813181769   10.52412195679399
O          -2.05104195342368   -1.43145215193028    9.41408827667311
C          -0.94296411669348   -0.86964484920778   11.45983608865046
C          -0.68315872109650   -1.55571159342168   12.65692744948898
C           0.01479588807939   -0.92523621390238   13.67332091376980
C           0.43890684458754    0.38384113858453   13.47405569178943
C           0.17016968696395    1.06006027502135   12.28244727700624
C          -0.52745236148602    0.42985309427851   11.25994607619334
Br          0.75508461531803    2.84146274793666   12.04197692570623
Br          1.40225191635982    1.24446170730524   14.85525878371328
C          -1.26152754515663   -2.89224217081379   12.55673162501107
C          -1.38597085057800   -3.77792653282288   13.59565587914028
C          -0.87219409844462   -3.55233735972350   14.89014173603836
N          -0.46570543463878   -3.42165687221809   15.95517915861531
C          -2.09325792993154   -4.99502887595041   13.52728426225653
N          -2.68316105597938   -5.98048461458739   13.54550305906369
C          -1.79013843769892   -3.05245658146248   11.21455357334565
C          -2.11372349649395   -4.27266925788351   10.67067207649555
C          -2.75031192290849   -4.58870617187023    9.45374131335383
C          -3.39760751577936   -3.74776396619616    8.56491132181112
C          -3.81511073751594   -4.50913836997595    7.43142093635773
C          -4.54339872992663   -4.01044903848948    6.34287204046167
N          -5.13127180753592   -3.61841618405573    5.43832530360933
C          -3.38156002934367   -5.81251347073947    7.58079944500739
C          -2.74518128768138   -5.93570019127400    8.84933498197358
C          -2.28252775235686   -7.13411373777366    9.36953612516616
C          -1.84129023067308   -8.29976439520598    8.54798421158408
C          -1.63558125716828   -9.34677580616704    9.41271036225932
C          -1.91413158397789   -8.89826248197561   10.74327040066244
C          -2.25835548127105   -7.55713131621555   10.72023359871612
C          -1.83571576328056   -9.71772708061511   11.87736794700630
N          -1.74734614104937  -10.41258935842066   12.78673563974580
C          -1.52938596852215   -8.22893308221379    7.16890633322111
C          -1.18425350873668   -9.29797314168338    6.39998457783023
C          -0.87034088167037   -9.27274623812839    5.00659075558583
C          -0.38463768860733  -10.43575226366851    4.41607857716288
C          -0.03263901960855  -10.45081447225506    3.06468363331956
C           0.51617443156899  -11.46445676070470    2.27058655898661
C           0.88526341209183  -12.82687415663958    2.72390758606331
C           0.28316945514074  -13.93246539105866    1.82602962870806
N          -0.00825386893401  -15.09491504917234    2.63167009647926
C           2.41829575187140  -12.96620731680020    2.83012747672961
N           2.92411075285527  -12.04578541560868    3.82979389276470
C           0.69377056306765  -10.90711070175530    0.95187477729333
C           1.22352828012263  -11.41956138143599   -0.17797293155058
C           1.33479672213361  -10.61876037136588   -1.42686389116199
C           0.76595385968313   -9.23902984852101   -1.33389759071179
C           0.24641346422450   -8.73479169464607   -0.19824236519703
C           0.20915847045284   -9.52043635755273    0.97697063185355
C          -0.21854499790635   -9.25261898493295    2.26632676545929
C          -0.74168083047583   -8.09068026790078    2.87275338073421
C          -1.04384382458119   -8.10335647239769    4.19805468883191
C           0.69723245128839  -11.35674965507036   -2.58223116549638
C           1.34129815252258  -11.61571149060934   -3.72175075921334
C           0.79138666581722  -12.23246326065464   -4.90142478858423
C           1.20513988929881  -11.93923900674353   -6.16485995370221
C           0.32703488029697  -12.59979076790509   -7.10910923162699
C           0.48009337730441  -12.54462656057090   -8.49961116248743
N           0.61879974644967  -12.48896087375850   -9.63798239098292
C          -0.64136855611157  -13.27764937126701   -6.41531972820742
C          -0.36701757438185  -13.14027170018510   -5.01479651350164
C          -0.94588406931704  -13.89948675793809   -4.02206072022086
C          -2.20812540487597  -14.65244758300110   -4.11623120111469
C          -2.30844269944500  -15.43337493070535   -2.99108035516075
C          -1.14160693015458  -15.21595180734128   -2.17778227408021
C          -0.34088942597582  -14.27245695901048   -2.77925496975364
C          -0.87848847461279  -15.87507411154894   -0.97285052021857
N          -0.65443735517982  -16.41301407628753    0.01722356702923
C          -3.21499836119854  -14.47796143559062   -5.10456170973631
C          -4.18531009972288  -15.39628360144562   -5.36261395156456
C          -5.21665639487887  -15.15796644039350   -6.29160785259943
C          -6.28744766352851  -15.95058783371234   -6.59492052200437
C          -7.05046161848973  -15.67019480900753   -7.83854282535744
O          -6.98372121525936  -14.67711857304476   -8.52409081823509
C          -7.86146497540015  -16.88411356318206   -8.07681907466374
C          -7.68505533460511  -17.78022191797151   -7.00671645193946
C          -6.81712106281231  -17.15889615289488   -6.00286874411835
C          -6.72349781683233  -17.57236645781742   -4.69949984048888
C          -6.09577957995225  -16.86293019898325   -3.65513922040700
N          -5.63828656985523  -16.33328618136171   -2.74465493210424
C          -7.33751160435437  -18.74354229054527   -4.20353922810822
N          -7.80122779234269  -19.68802587843716   -3.74582096744100
C          -8.31192780964437  -19.01427814529751   -7.03567982004730
C          -9.11468670137243  -19.32809086414165   -8.12695056858142
C          -9.29908301226008  -18.42446509265982   -9.17544539289959
C          -8.66473899149822  -17.18876595274120   -9.15556056731893
Br        -10.40669620454415  -18.87308370842682  -10.63947500988315
Br         -9.95886310475188  -21.01896856178512   -8.17364159612425
H           0.24467150035176   -1.41745389873809   14.60436650544424
H          -0.74035878816864    0.94098188348762   10.33386181721575
H          -1.80027772259563   -5.13198044381914   11.24831008320458
H          -3.57150389755313   -2.69692682637957    8.68065155103013
H          -3.62003833696383   -6.62401999971952    6.91912119393385
H          -1.28532163150697  -10.33289772713466    9.17496238624037
H          -2.59309644034377   -7.00749746292958   11.57958415684314
H          -1.54298292812018   -7.24384716649467    6.72639941702198
H          -1.13426316562788  -10.27163964346659    6.86882628921212
H          -0.26390532904440  -11.32532051170796    5.01636329417096
H           0.46899615403384  -12.98387926915566    3.72347595081613
H           0.96606797845744  -14.14271279371378    0.98751912322955
H          -0.66216240840712  -13.57680831689324    1.40720820174032
H           0.84460409828099  -15.55323976977354    2.93320882722506
H          -0.55041114564267  -15.76750393180378    2.09942784249510
H           2.87781954423936  -12.70208556074466    1.87386446754478
H           2.65530968652290  -14.02161582349125    3.04538989926413
H           2.60477183572981  -12.31473627860362    4.75430670554927
H           3.93724712680564  -12.04444756314522    3.83904900806352
H           1.59292393587441  -12.43343048821701   -0.22779989766202
H           2.40784259598367  -10.52374258977682   -1.65922750393644
H           0.79766746154705   -8.65700096746670   -2.24230287737504
H          -0.14302318572059   -7.72791020417765   -0.16954992938692
H          -0.89269904900669   -7.19950859097286    2.28213216758901
H          -1.44213322168918   -7.21078494487192    4.65384951362725
H          -0.33971351562105  -11.62469853670342   -2.44241937121742
H           2.36087038495577  -11.26549909837258   -3.84116839746713
H           2.01878602644222  -11.29765415659889   -6.44784668015207
H          -1.38413826154688  -13.92105167112904   -6.84560761836740
H          -3.13986649304867  -16.05104264547380   -2.70643478284562
H           0.62707507082047  -13.95565352071738   -2.44267835623593
H          -3.22630023956081  -13.54072499711191   -5.64619852047697
H          -4.14433370370633  -16.35081042938098   -4.86184215964426
H          -5.13513482929902  -14.26228665892707   -6.90033005844216
H          -8.18913200369430  -19.74044111986076   -6.24849566970794
H          -8.79420328435585  -16.48463452238377   -9.96275233629875
