92
 SCF done       -126.805131437430          0.000828097400
C           0.38540742042629   -0.94997495856898   -0.78605003679748
C           1.05112642309823    0.13127286999325   -1.17636634939014
C           2.17475893459096    0.18172008421996   -2.10098264989900
C           2.65569783829065   -0.95256671262041   -2.76740395951140
C           3.72167598831317   -0.83526570962106   -3.62558830802358
C           4.33628339620914    0.40893281987212   -3.84408644256808
C           3.86911549573847    1.53944450904720   -3.19276816596560
C           2.79561134554350    1.41339341033098   -2.33184683027194
C           5.42090086293510    0.22785643254493   -4.78677205518445
C           5.47713614907073   -1.12814301466516   -5.14993514817064
C           4.39643935254129   -1.91322529668976   -4.44282918911220
C           3.41792185239251   -2.55044085703089   -5.44656739926545
C           2.77512468511833   -1.52751857223699   -6.37522508741801
C           4.99705653590160   -3.00885535210599   -3.54333366552085
C           5.98045761518238   -2.45727860339863   -2.51830545294021
C           6.42171981205699   -1.57900123632334   -6.03759951760137
C           7.34472643884697   -0.67758916012403   -6.59020612091466
C           7.27639692651964    0.67084970592735   -6.21706523408801
C           6.32654348375532    1.12834538807976   -5.32458771662023
C           8.34506446923410   -1.14969242231962   -7.52005138464077
N           9.02573015856532   -0.29648594009611   -8.36431267650238
C           9.89471674837842   -1.02727350647124   -9.11384043767374
C          10.86297108225686   -0.94890453647589  -10.11652575836663
C          11.32157366211435   -2.25104242277438  -10.31317795044309
N          10.65237025703272   -3.10213400156518   -9.45386129435128
C           9.77413668259395   -2.37439050566396   -8.71549345639530
C           8.79710001561151   -2.45004134382527   -7.71870041490703
C          12.30163064522974   -2.76522618751784  -11.21093129999220
C          12.99191548482526   -2.03713300334775  -12.11128946406624
C          13.98008130646810   -2.52608311333160  -13.04261192220906
C          14.53528317629957   -1.62165123203508  -13.96355838501950
C          15.46886620217204   -2.05141817816754  -14.87308580370746
C          15.88336302274817   -3.39338236960550  -14.89167339137388
C          15.35073112907172   -4.29751272117844  -13.98487090229546
C          14.41012538046348   -3.85979373141225  -13.07495390849379
C          16.86193620233435   -3.56008526170108  -15.94574795080399
C          17.05275719770775   -2.32054496201219  -16.57909649397012
C          16.18080872050023   -1.26005675159084  -15.94629905417778
C          17.02642424895517   -0.12525245467751  -15.34010336173821
C          18.04342124804216   -0.62663674756280  -14.32199354126722
C          15.18474767447980   -0.67326626185387  -16.96336926012432
C          14.30941708374660   -1.73782337127135  -17.61355715716093
C          17.93284761352641   -2.19327808322977  -17.62587680045606
C          18.64911243068330   -3.31262223733485  -18.06891622570230
C          18.44689217974005   -4.53944774224397  -17.42855816650800
C          17.56451517946512   -4.67542115686580  -16.37398283737996
C          19.59589806318558   -3.25226820295587  -19.17330385828271
C          19.94743586461791   -2.17546028079331  -19.86719721340478
H          -0.43563966963291   -0.88082487731233   -0.09320557836749
H           0.62406163780811   -1.94129458152902   -1.13208010084107
H           0.75495763546199    1.09490361167766   -0.77832587908077
H           2.18778331243864   -1.91196029996322   -2.60864548577698
H           4.33262048366820    2.50175029545567   -3.35343810043686
H           2.42286129328644    2.28885369029980   -1.81808974327974
H           2.63779338771270   -3.07478924748193   -4.89018048724247
H           3.95880884173018   -3.28988516707735   -6.04129041962180
H           2.21778840227320   -0.78836238446029   -5.80390345185300
H           2.09033922711180   -2.02159613880531   -7.06098877776573
H           3.53378339858717   -1.00982448518404   -6.95806597009270
H           5.50482538724502   -3.74074076476137   -4.17547295119327
H           4.18375258237502   -3.52217208871912   -3.02549978681425
H           6.81073646622737   -1.95909244585557   -3.01398207707813
H           6.37741443115033   -3.26454693358709   -1.90670210072852
H           5.49001560542343   -1.73875920383791   -1.86526384701247
H           6.45543805824025   -2.61777125016523   -6.32726351441993
H           7.99618524225352    1.37320211793410   -6.61284249528944
H           6.29718034205180    2.17221069651130   -5.04834956797086
H           8.84160018990050    0.68667719376271   -8.45406887486891
H          11.20019679378638   -0.07655325828928  -10.63858633641085
H          10.80380548793090   -4.09445467224263   -9.40504569820916
H           8.47415512934441   -3.32177795590932   -7.18611497809204
H          12.46909100736743   -3.83173339334799  -11.13861783126818
H          12.79192454935152   -0.97560434926310  -12.16907712110818
H          14.21429075466764   -0.58919202545534  -13.94748667758419
H          15.66586627258149   -5.33088074346061  -13.98897312966905
H          14.00129771844430   -4.56734649106160  -12.37003143031970
H          16.35674151666231    0.59206982292975  -14.86029930106630
H          17.54787287954438    0.39352474531105  -16.14775174031311
H          17.54345116124190   -1.13115900607665  -13.49808633685617
H          18.61508163902908    0.20726250400693  -13.92046261999065
H          18.73457257573435   -1.32794138280943  -14.78445878908566
H          15.74487896643029   -0.14290465010851  -17.73683277056336
H          14.55052384890484    0.05447952198936  -16.45213988556878
H          14.92057395220790   -2.46344499975814  -18.14581704532470
H          13.62355506192939   -1.27851623665926  -18.32207474445539
H          13.72688998434047   -2.26604469299586  -16.86193050578246
H          18.07044479648764   -1.23766022230123  -18.10810543208574
H          18.99987401963811   -5.40321359535226  -17.77147501810403
H          17.42597687988061   -5.63374290464674  -15.89527671267409
H          20.04672298121082   -4.20422085397435  -19.42907087087799
H          19.54759454381737   -1.19558934372165  -19.66991897072460
H          20.66164753762239   -2.23689057041863  -20.67045714346423
