139
 SCF done       -223.802691008414          0.000292043771
C           5.43402357537067    3.83148052376378   -1.60325230415979
C           6.71692545058360    4.19844815246338   -1.29364922481650
C           7.84711074948569    3.38773775176214   -1.52701750730068
N           8.80257691165778    2.77100244340800   -1.68487642999939
C           7.09054707703508    5.44137926736250   -0.74007933112904
N           7.47472450564143    6.43454085514715   -0.30987992524669
C           5.03778857601982    2.59939544318842   -2.27039012449506
C           3.64656767682924    2.67254746375292   -2.56202891526229
C           2.98697008313554    1.65665386061636   -3.19149006417561
C           3.70340441095367    0.49793510002545   -3.56557954758096
C           5.09517625759900    0.41425652726372   -3.27204036923660
C           5.75090878373686    1.48249846663204   -2.61853771259642
C           5.79861312990472   -0.74932710893982   -3.64480768227872
C           5.16043500516804   -1.78069542969417   -4.27807886019741
C           3.79020554826586   -1.69683120695702   -4.56730758581024
C           3.07754650805266   -0.58162966977598   -4.21930875707958
C           3.10173169364983    3.95601881942022   -2.08204079580779
O           1.94944532010356    4.32014221286242   -2.17309874633762
C           4.24016721892607    4.63965756557388   -1.40665307100713
C           4.14019986135190    5.68859742279433   -0.54759219546901
C           3.00702728646873    6.55174096329758   -0.35384490111499
C           2.17841026224899    6.94524275894397   -1.41594451086857
C           1.09448967792932    7.74520163435401   -1.15631219635643
C           0.80784514466909    8.16722601815141    0.15462671057887
C           1.64895528611177    7.82125178199434    1.20525577984125
C           2.74935087069603    7.03557134972511    0.93934934796531
C          -0.40408293169100    8.95523755530068    0.12909083012410
C          -0.85974797877749    9.02834578460464   -1.19967838573039
C           0.06699783210417    8.27841292397387   -2.12534256428614
C           0.70864205913542    9.22263963170803   -3.15990067189812
C           1.44832939047905   10.39149614461475   -2.52019907488421
C          -0.66779053072986    7.13832003358811   -2.85475600734245
C          -1.26760981348508    6.11360955452199   -1.90019094593091
C          -2.00756650802320    9.71378446161262   -1.50585654269137
C          -2.73026447670701   10.34970124395080   -0.48463658349841
C          -2.28069833805632   10.24692717395499    0.83864554533364
C          -1.12332902764412    9.56129568293488    1.14932411647252
C          -3.94491903796360   11.05486915309998   -0.81484505094420
S          -4.92575156690590   10.49271637640640   -2.11494985316566
C          -6.15431955957678   11.69329120823110   -1.86249535713125
C          -5.77948153129946   12.55185359637295   -0.82052377282388
C          -4.52225706044759   12.18405131216246   -0.23072849048914
C          -3.95918799810583   13.00815336621740    0.76592920974876
C          -4.63805674101336   14.11008411662191    1.19068602445252
S          -3.93166290494461   15.15518471155203    2.46691736384530
C          -5.90953949484047   14.45538972367113    0.65540621038160
O          -6.57877780155548   15.54058815509249    1.10603707000760
C          -6.44718091938318   13.70030266788734   -0.35443566244979
C          -7.28427500787291   11.62619820733782   -2.72156625719273
C          -8.48766704566736   12.21972256199842   -2.56512922339369
C          -9.59185917985983   12.13597098874006   -3.48852272719975
C         -10.82015361761941   12.70833780932895   -3.11380792451028
C         -11.88795045990666   12.66692770509406   -3.97466005592290
C         -11.76342315144335   12.05714532567675   -5.23608998255417
C         -10.55743772447102   11.48535100793583   -5.62026442912168
C          -9.48955374889940   11.52987919161185   -4.75056659600002
C         -13.02137655115618   12.17478195663927   -5.93284086308783
C         -13.93176060460910   12.85717414282188   -5.10154397433811
C         -13.28161017945523   13.21971139442721   -3.78637521383763
C         -13.99918366997455   12.54429212881495   -2.60266429381190
C         -14.06502738366344   11.02768679369293   -2.73779000275591
C         -13.25781035229146   14.74493048511634   -3.57350191922400
C         -12.56074383215562   15.49032344396446   -4.70523013761174
C         -15.20340417216868   13.11853039688259   -5.53485601972493
C         -15.61570172811177   12.68290682058015   -6.81375791373499
C         -14.69011027952921   12.01568965674931   -7.63314390125989
C         -13.40523825582479   11.76262507069024   -7.20231404048484
C         -16.94541759611753   13.03190934845367   -7.21277400924740
C         -17.76051447588167   12.58720612458621   -8.21292926035165
C         -19.05853690477205   13.18589143199855   -8.49950324722037
C         -19.51738069015807   14.40106960279715   -8.05967886546164
C         -20.77870313519339   14.93587272807015   -8.39637740707849
N         -21.79055950817371   15.42896880769132   -8.62379869263312
C         -18.81369202155240   15.31405815438302   -7.24598141774711
N         -18.31761809682973   16.12852527832132   -6.60461676764629
C         -19.77046300969983   12.30920845700213   -9.42002001089919
C         -18.91313257220223   11.22688657481935   -9.75949112669919
C         -17.62647088775503   11.36871504473864   -9.05369152761219
O         -16.69377935309856   10.59743664442003   -9.13588137542664
C         -19.29880807767415   10.23911830137479  -10.61864663731804
C         -20.58956111785395   10.28997852753666  -11.19037829799525
C         -21.45857559480097   11.36633750174736  -10.85022468386532
C         -21.02980859350160   12.37401754563086   -9.95623856136226
C         -22.74631702958457   11.40540985134472  -11.42296905544088
C         -23.15653380192289   10.43083332341963  -12.29120694957517
C         -22.29933670687720    9.37198968874203  -12.62614915332715
C         -21.04320051195791    9.30331436267759  -12.08760306834924
H           1.93060261331261    1.73673238546248   -3.40163149080124
H           6.80312877274038    1.38647424049003   -2.40218057435832
H           6.85368386208572   -0.80860163613020   -3.42103311218428
H           5.70814828938619   -2.66750391367670   -4.55981902912083
H           3.30225928203324   -2.52051582813920   -5.06672619825815
H           2.02216551938456   -0.51139985573046   -4.43910332403836
H           4.97665555884274    5.87673318997492    0.11638604005045
H           2.41334381164078    6.64113420120680   -2.42255396816389
H           1.44794775334583    8.16259540149523    2.20958060376594
H           3.41268027810251    6.74958478219992    1.74307905512778
H          -0.07637873274284    9.60538165501496   -3.81559290539766
H           1.40404648429089    8.64544981737662   -3.77246947418501
H           0.76970486416841   10.99654173725623   -1.92275313681819
H           1.88484298833286   11.02365428755617   -3.29003646178161
H           2.24801846477113   10.03456701232281   -1.87486383634444
H           0.03814500580628    6.63370088258018   -3.51628123697727
H          -1.45772171270511    7.57416208237362   -3.47064992020408
H          -0.48002063208432    5.59070208173228   -1.36388802574491
H          -1.84322122168150    5.37969951203791   -2.45907566040694
H          -1.92709414586187    6.59295342913251   -1.17930562768402
H          -2.36217831783400    9.78272659631598   -2.52435168373088
H          -2.87451030813846   10.67295190123263    1.63232229922857
H          -0.79539192533181    9.48691652508843    2.17531453758571
H          -2.98007155826053   12.79439921814840    1.16244441497899
H          -3.81133884745380   16.24407110776685    1.69935868737515
H          -6.12104537078673   15.88678936846312    1.89062576596876
H          -7.37665425090666   14.02413034676309   -0.78734919368099
H          -7.13360873908285   10.97581861596249   -3.57396521991028
H          -8.68501444819429   12.79243732250842   -1.67136260842484
H         -10.91005373011708   13.17895862367223   -2.14477027987655
H         -10.45520978401104   11.01711346541829   -6.58787949699095
H          -8.55101580856150   11.09604083321468   -5.05807839773158
H         -15.01186016544735   12.94691208901171   -2.53287778488863
H         -13.47288379351040   12.80324756899173   -1.68153966789037
H         -14.60025448942702   10.74399781372343   -3.64137304304037
H         -14.58247759921232   10.59840675450557   -1.88292373755997
H         -13.06503455309566   10.60188359858145   -2.78409981755468
H         -12.74797731976605   14.95750939065896   -2.63147360128068
H         -14.28569194068964   15.10207019196466   -3.48481942188827
H         -11.52698215769877   15.16515748953732   -4.80181651059703
H         -12.56863339058626   16.55955038542376   -4.50758196447943
H         -13.06651374650202   15.31306318721920   -5.65175369350798
H         -15.90327897031447   13.65165174703245   -4.90686674520162
H         -14.98522186849520   11.70335929706423   -8.61934620699710
H         -12.70669638915255   11.25420952155516   -7.84945847322583
H         -17.38059734888304   13.79356265724693   -6.57428418077779
H         -18.62571210872933    9.42970021561044  -10.86001764099591
H         -21.71470607587780   13.17110743397676   -9.71497874043803
H         -23.40211543387310   12.22353920323253  -11.16324650016908
H         -24.14437437302152   10.47048369858813  -12.72542317073893
H         -22.63949278991653    8.61109151749287  -13.31274580660499
H         -20.37849480213821    8.49039691826571  -12.34148672822712
