101
 SCF done       -197.621703719238          0.000853154395
C           0.13704587157649    3.97256231877355   -1.32177048872250
C           0.94121100804136    3.31563046224552   -2.20886662633552
C           1.95307488230386    3.94052723871223   -2.96786295984727
N           2.76578350970073    4.42369882271317   -3.61690116886636
C           0.86941059375972    1.91671131861414   -2.38847623154144
N           0.85977284498865    0.77299458410673   -2.47861299475591
C           0.27300399393509    5.34632869480427   -0.85965908011243
C          -0.50776966986590    5.51327249690394    0.32462228139464
C          -0.59288589254901    6.71773562084374    0.96387296062314
C           0.11657048982106    7.82328382774530    0.44670437076356
C           0.92930800654861    7.65282439523998   -0.71287170552911
C           0.98923359760965    6.40002233740377   -1.36344335457357
C           1.65472624482353    8.75800173467023   -1.20280594598961
C           1.56292032649864    9.97883875713249   -0.59224221358938
C           0.74304162447676   10.15181070523007    0.53356077339567
C           0.04024263474768    9.09581000182928    1.04591762685173
C          -1.17146555077239    4.24502484635185    0.66366577981437
O          -1.84195123822441    3.97123772741547    1.62809046492122
C          -0.91047421781841    3.36336990393780   -0.51840785573516
C          -1.74288562481483    2.33435951221827   -0.79178590540717
C          -1.91257515214833    1.70790254363256   -2.06687719710810
N          -1.75538708632823    2.39896638352104   -3.18168354032494
C          -2.12937291524289    1.57620704808823   -4.18722465025995
C          -2.58088919978598    0.28112929456598   -3.66523593507679
C          -2.98388998284517   -0.61625525872433   -4.76252679001603
O          -3.43122230612887   -1.73635105196071   -4.69638905915794
C          -2.70710563922531    0.20979981020237   -5.95860420970029
C          -2.19955161228357    1.54531738970216   -5.55481554166038
N          -1.92518733931717    2.30207047811890   -6.64673188212922
C          -2.20519218833455    1.53876341639095   -7.67088257543073
C          -2.68819192188941    0.21309847501112   -7.31240978925618
C          -2.41616901665106    0.33405447749832   -2.30532145667670
C          -2.64234079875487   -0.70994025126743   -1.36796186588379
C          -2.12487880956174   -0.77581683469695   -0.12098826721960
C          -2.36070883202709   -1.85546931082903    0.77259992734022
S          -3.44517098041535   -3.15539125905220    0.41761854383349
C          -3.12205231888294   -3.89265581736176    1.94522911208243
C          -3.77500253146697   -5.14771410144479    2.31754421500147
O          -3.60822041555008   -5.72749497280262    3.35806855432266
O          -4.59403195654723   -5.58691695621217    1.34997407714442
C          -2.22144910006817   -3.18266257741589    2.69892621429678
C          -1.78433320495947   -2.02572744601231    2.03638490994982
O          -0.87393012756535   -1.09921545903874    2.45991525013920
C          -0.30799385319641   -1.12781219545642    3.64373758483724
N          -0.55982300475195   -2.00238086359799    4.59455724676971
C           0.22342654483720   -1.64413859916605    5.63657887273171
C           1.02320435526261   -0.45844682809989    5.31113803342638
C           1.88739241366613   -0.07976639247492    6.45024510518922
O           2.68598795577674    0.82466923113808    6.51564793745294
C           1.53412074120238   -1.09443813455436    7.45839268535223
C           0.51984406545239   -2.03041550837935    6.91821913782808
N           0.20134725709621   -2.97075398739214    7.83886556532723
C           0.93301921104059   -2.68581655775073    8.88871682528393
C           1.78768822094642   -1.52855067606415    8.71972388324456
C           0.70307483030973   -0.10624354396982    4.02650095463566
C           1.23089918916910    0.98140205378369    3.27953656875415
C           1.07894303854798    1.18353107826538    1.94973287018721
C           1.69273489382241    2.24791863991198    1.22970319685108
C           1.97163745156234    3.50259230276126    1.68392892399956
C           2.73813614930545    4.51457888256360    0.97502999694278
C           3.53750733472585    4.31119513717423   -0.12017268961484
C           4.22514224837849    5.34862202179310   -0.78485743308727
N           4.78047213078969    6.16763921111573   -1.36601346836269
C           3.79458456857512    3.05635444367605   -0.71207550808904
N           4.06929025529378    2.06209723014655   -1.21638493255363
C           2.58195704329744    5.77763475815908    1.68415289020847
C           1.73007606908856    5.56642715611111    2.80366812068148
C           1.34841948868289    4.14515838418844    2.88138259592216
O           0.64055433819715    3.63717445338004    3.71881421077889
C           1.39578678627809    6.57557192202064    3.65987172900370
C           1.92662917183796    7.86596799244127    3.44188310154395
C           2.80836159596056    8.07887518794766    2.34360880669478
C           3.11979719468985    7.01877616900275    1.46363489788758
C           3.35723412392303    9.36290677395242    2.15228263914716
C           3.04198697226761   10.39162311855446    2.99731307244971
C           2.16250653444056   10.18457425532153    4.07052502970973
C           1.61934563884665    8.94795772847135    4.29006725892978
H          -1.20032989408750    6.82587759193575    1.84995540039451
H           1.58645938119363    6.30631188384624   -2.25729076730409
H           2.28280400974703    8.61804950475071   -2.06982919532763
H           2.11797742497496   10.82100064010256   -0.97682897367143
H           0.67252835065837   11.12540401638498    0.99435387837881
H          -0.58616522847537    9.22134935120436    1.91654938559367
H          -2.42518263021402    2.03593798602493   -0.00272229891759
H          -2.07897903914137    1.90726120291636   -8.67423073827817
H          -2.96320335567828   -0.55682803437499   -8.00563384747606
H          -3.23635536729561   -1.53709766019910   -1.73741057013187
H          -1.46757855640935    0.00098431996953    0.24499462185656
H          -5.01272969285106   -6.42068082400931    1.61407429183786
H          -1.89597638515827   -3.47973319421514    3.67944218895558
H           0.86896732996035   -3.29302433468774    9.77496597885098
H           2.45899537496280   -1.13533722178749    9.45733143023085
H           1.85454307308188    1.64645313903154    3.85971764556054
H           0.56497683527340    0.44299535394679    1.35171070015192
H           1.94792322854250    2.00515317435252    0.20387611372783
H           0.74490682242793    6.38461606803742    4.50015197079313
H           3.78252625605160    7.21747924021689    0.63727892227319
H           4.03374231827872    9.51575196707085    1.32455865826042
H           3.46949205175679   11.37115510322906    2.84430650010260
H           1.92205291595458   11.00831796956157    4.72589394113645
H           0.94906382242159    8.78018458388369    5.12043327956142
