113
 SCF done       -204.456222682103          0.000397562720
C           0.81773853951755    6.07184829754970    3.89024717392581
C           0.21397415689764    6.44275597619966    5.05787352294662
C           0.27818705303727    7.74819579598743    5.58981111193061
N           0.30112839531493    8.79714896694459    6.05360878582637
C          -0.63019725544448    5.59171374489120    5.80255197931178
N          -1.38182982599638    4.96003878951459    6.39726932867600
C           1.47671838832593    6.95819413468727    2.94137478475511
C           1.52385616431866    6.31385194508108    1.66768122868234
C           2.05466618382526    6.93287028492685    0.57121020918496
C           2.57555168738167    8.23913310099562    0.70198333776116
C           2.54616567320204    8.88093370666540    1.97529470150196
C           1.98877920168711    8.21919828987187    3.09276679648462
C           3.07525329784021   10.18255856030505    2.09176323745873
C           3.60518607392242   10.82249150620408    1.00458960563943
C           3.63252130880525   10.19080496618990   -0.24823645795686
C           3.12860061500300    8.92719861256939   -0.39649145204579
C           0.94428804077219    4.96646925279932    1.77559303998149
O           0.74318044966071    4.15373461630697    0.90636869949612
C           0.70131033265832    4.77513645337147    3.24255854447097
C           0.56124352433284    3.53751461554679    3.76257228962244
C           0.67929735888180    3.19931670565308    5.14866421749581
N           1.50992853702398    3.84169892120954    5.94716654696571
C           1.36806398174203    3.26776577941425    7.16534877541987
C           0.36838614166349    2.20129003436559    7.13748594970769
C           0.21055639760543    1.61245261095245    8.47292425354194
O          -0.53245349840552    0.71793845375534    8.82390931635542
C           1.17474777941284    2.38043198007969    9.28435691500113
C           1.86074153006701    3.38366669957283    8.44310523432320
N           2.74882251443760    4.09755602465610    9.17652172689602
C           2.65895964167834    3.61214415279753   10.39023459156277
C           1.69395635191874    2.53586249089103   10.52798498665481
C          -0.07618797487721    2.12836320081892    5.83306244876050
C          -1.05826296604059    1.31139936351459    5.22886486863820
C          -1.85509456871702    0.47458749105937    5.95262233106131
C          -2.82093545047500   -0.37990308787491    5.38583449349187
S          -2.70732037332848   -0.77629129406126    3.70832247974474
C          -3.95814549522061   -1.98058376418821    3.80843566228419
C          -4.59718696960299   -1.92382132021992    5.07592214280780
C          -3.90815033431153   -1.05699362956862    5.99318116149832
C          -4.37258836146515   -0.90045738301849    7.32013534565620
C          -3.76075386189682    0.02765848309137    8.31656000683882
C          -5.49551152142147   -1.61630640159851    7.68275859094173
C          -6.21302029762430   -2.37984077058768    6.76866184541978
C          -5.81806454079444   -2.51971384615812    5.45329896064611
C          -6.75224422049474   -3.19769527545627    4.50507998952389
C          -3.97879669928915   -2.85849468020480    2.71637634031298
C          -4.42908724193203   -4.15262142206406    2.64126132537562
C          -4.16043888422510   -4.92355846574530    1.49570866548823
N          -3.36497904224544   -4.48320425028337    0.51203571897773
C          -3.18775255415950   -5.51276422900577   -0.31714607708075
C          -3.90116783634864   -6.71102801936772    0.15517994380194
C          -3.70128586215985   -7.84513348984500   -0.76934886708888
O          -4.15652488326760   -8.96448500956898   -0.68866201337335
C          -2.82233580773748   -7.26135303357095   -1.79295236227659
C          -2.53361511944508   -5.84566038935901   -1.48815645590256
N          -1.73851299631984   -5.30408495035974   -2.43434700467786
C          -1.52112305907741   -6.27556290673142   -3.29713360592744
C          -2.16911425283727   -7.51833065837263   -2.96018142189904
C          -4.56332046630465   -6.33725486321781    1.29214853358057
C          -5.48166724998946   -7.12092888858991    2.05252752099227
C          -6.60973810901557   -6.63713948745763    2.62734843731961
C          -7.52214100539478   -7.49035409050732    3.29824652677808
C          -8.75827541089266   -7.12136955703304    3.74235505947192
C          -9.72543297967017   -7.97241863710652    4.41493714740131
C          -9.48835326133602   -9.20310120561411    4.96797015604887
C         -10.47018246719716   -9.97633332951858    5.62268997915469
N         -11.22215486320726  -10.65218955284789    6.16647777135262
C          -8.23481083853745   -9.84970420684750    5.00921437473034
N          -7.24545632563333  -10.42420651227325    5.10775526770169
C         -10.99276163878735   -7.25228757000099    4.46185548923209
C         -10.79347871360569   -5.94681940725143    3.92886175358695
C          -9.39254213635543   -5.79918423712053    3.50036746173335
O          -8.87935201738817   -4.79970613313116    3.03939148428757
C         -11.80764526716361   -5.03617822492887    3.85084198719348
C         -13.09509889824234   -5.39802349143555    4.30561474343934
C         -13.30488515916937   -6.70475003252444    4.83364298565487
C         -12.23421148195025   -7.62520178287385    4.90511092753967
C         -14.59494798661736   -7.05738498887498    5.27966645959774
C         -15.62881079228814   -6.16385317824934    5.20872027765946
C         -15.42104061348110   -4.87755666475113    4.68851902637325
C         -14.18116926878740   -4.50266921717092    4.24702705613218
H           2.07621110215887    6.43170876313558   -0.38512710139447
H           1.98870903282252    8.72014183520561    4.04827639442315
H           3.04955078511063   10.66557696078437    3.05732694059427
H           4.00643197087469   11.81984312358679    1.10360769725370
H           4.05513194675239   10.71056042094426   -1.09487782188541
H           3.14685507364169    8.43627122134467   -1.35836880992857
H           0.40838581082009    2.72529176202218    3.06003435482925
H           3.27003685956390    4.01027938549761   11.18148146033341
H           1.47431203975779    2.00901412560465   11.43548447884214
H          -1.19434219936086    1.39379831612252    4.15792828580475
H          -1.72071470711738    0.45109599772663    7.02179469217206
H          -2.77556501947419   -0.31151930185897    8.63359957072825
H          -4.39078008183968    0.08395715843896    9.20114663276403
H          -3.66017639217263    1.02998438130870    7.90351429658412
H          -5.86681525755838   -1.53252958815976    8.69330067417714
H          -7.13507749591887   -2.84476218553988    7.08578341668276
H          -6.71144179829402   -4.27977170826289    4.62185055430280
H          -6.54510720095076   -2.94374167374313    3.47118693537381
H          -7.77461329598898   -2.89921722968435    4.72936253526609
H          -3.44712296000615   -2.51473227591766    1.83555844089881
H          -4.91057109092126   -4.63824330515887    3.47299529077365
H          -0.90481950549585   -6.10179781395277   -4.16213053452304
H          -2.12062952173854   -8.42492011782986   -3.53020819428162
H          -5.28707858203309   -8.18719671716648    2.07099659893502
H          -6.87199278452489   -5.59457502933876    2.52434563871085
H          -7.20573911749582   -8.51784149377673    3.42923120608906
H         -11.63038568789521   -4.05213660273009    3.44231991691225
H         -12.42727786174598   -8.60821191382299    5.30422575983070
H         -14.74983798749205   -8.04859748548498    5.67986547522661
H         -16.61320361008398   -6.44349558390027    5.55288207979353
H         -16.24846784726675   -4.18562994008765    4.63874777356240
H         -14.01539523305086   -3.51391395626068    3.84459743717719
