142
 SCF done       -240.605949440139          0.000576599381
C           6.81822338916483   20.32926791583541  -16.01085713461923
C           7.15423432085363   19.21591942629654  -15.28010332338594
C           8.04890748059022   18.22420408567666  -15.72571796860263
N           8.75165814669496   17.37640201975183  -16.05218506976358
C           6.71037032503529   18.99022409821688  -13.96346323798160
N           6.39862131182907   18.78588825509868  -12.87746340911918
C           7.47421174820148   20.74865956723991  -17.24706091978097
C           7.22272975393620   22.13793364275979  -17.44126396638093
C           7.74669657080201   22.82124676361361  -18.49944379538992
C           8.55069937352489   22.13132009127235  -19.43544699038286
C           8.79134833002129   20.73885583431202  -19.25675707922900
C           8.24141085299622   20.05830294334822  -18.14512850168165
C           9.58873782385319   20.06141943627854  -20.20097034358713
C          10.12701110773211   20.72616428631851  -21.26914614139370
C           9.89091017932703   22.09765844436435  -21.44336869169024
C           9.11960392143961   22.78508321760553  -20.54583123724117
C           6.34289114243918   22.62590782156256  -16.36308321412811
O           5.95633103128275   23.75764801034352  -16.17143348269359
C           5.97369699555805   21.41626714612108  -15.57923889792629
C           4.92498708915441   21.50082326395533  -14.70771676728700
C           4.11923554270429   20.48681373522428  -14.15640381249894
S           3.05719800596560   20.88394795586551  -12.82727472263038
C           2.40616221001902   19.27921096713182  -12.79969377582966
C           2.97116592808181   18.49947089005054  -13.79702869188277
C           3.92714891812731   19.16765567231452  -14.54473977988468
C           1.42778194265354   18.90312366346437  -11.84901458460912
C           0.85078882538057   19.68790668962670  -10.87015540655012
C          -0.08669108433643   19.01094681664961  -10.09759670321839
C          -0.25028820375603   17.68896314720385  -10.46409614564926
S           0.78695407927743   17.28166171132496  -11.80067798547395
C          -1.12005903821672   16.73086063012044   -9.88669792827416
S          -2.18068051666985   17.16550843917243   -8.57723801110176
C          -2.82483074942555   15.54831346400754   -8.49111557933302
C          -2.22778414450675   14.74113136860436   -9.44025490504879
C          -1.27919246133052   15.40028550596496  -10.21813861919982
C          -3.82822501852575   15.26196438965389   -7.52448432130694
C          -4.38771305399018   14.05003109306372   -7.31508867307402
C          -5.41159866846856   13.74438219451545   -6.34966131473111
C          -6.06249505990263   14.71016045291088   -5.61528542464895
C          -7.06143302834130   14.35561168113676   -4.68760609701297
C          -7.85099865366384   15.12745687397059   -3.84747099431054
C          -7.88454287454577   16.61118883618387   -3.68119012603378
C          -6.49400389920361   17.21627168565798   -3.41764644119528
N          -6.62648493471354   18.36672601098640   -2.53999825727821
C          -8.56181179686926   17.26777275433440   -4.89849958439995
N          -9.96638482412951   16.89659227702820   -4.92722604362670
C          -8.72733196608491   14.21707979997843   -3.15167691778201
C          -9.70798566094769   14.44581203948530   -2.25856829353846
C         -10.55671067462625   13.33575962585991   -1.73708827477480
C         -10.10472398266538   11.96782456500702   -2.13433721954824
C          -9.11413693664389   11.75598616310343   -3.02034482419937
C          -8.41147209911549   12.84919577196681   -3.58520360189182
C          -7.40241361769703   12.94530635197049   -4.51981045824310
C          -6.71816573810994   11.97169590324027   -5.28649220389907
C          -5.76454602911036   12.36303592075872   -6.16575138925972
C         -11.92887042751623   13.61293865969671   -2.31164190275384
C         -12.86632631743721   14.32906637936418   -1.68648198395135
C         -14.14825622801548   14.65609826702812   -2.24135127929038
S         -15.13073376124598   15.86295761307065   -1.46844841357050
C         -16.36325696525987   15.71548256046812   -2.68450337979737
C         -16.01440636125486   14.75843682404810   -3.61505884960589
C         -14.77330852297315   14.17018827081581   -3.36733469735754
C         -17.52387968166885   16.53768296754857   -2.67261514910073
C         -18.58583906338990   16.51492539550728   -3.55513361455693
C         -19.54327196760485   17.49246633720856   -3.29523073780396
C         -19.23905425076296   18.28556010715297   -2.20803100041878
S         -17.73108458683584   17.79287659470069   -1.48811618590749
C         -19.97065400529769   19.38627135682340   -1.69588013767836
S         -21.41304312704957   19.95077627644583   -2.47461298033745
C         -21.59837743494051   21.23882944252526   -1.31025019145693
C         -20.57662959279455   21.19075640248175   -0.37273119466438
C         -19.67012292879614   20.16296706861372   -0.58847963587181
C         -22.67314833552991   22.14305215526378   -1.45487177197230
C         -22.93217660102676   23.17673760762400   -0.60387617344432
C         -23.98214454335646   24.11621053717205   -0.68982461149507
C         -24.81297156239357   24.47488294283842   -1.72271742915343
C         -25.87320866046061   25.45814606505238   -1.57626647060697
C         -26.45486701256731   25.86745215856632   -0.40271277383721
C         -27.49487258979131   26.81663888712349   -0.32996137632373
N         -28.33670752118584   27.58734201324221   -0.20194249048895
C         -26.14604210295716   25.37792240844770    0.88350696071994
N         -25.97961660382217   25.01956578356825    1.96251849237362
C         -26.28951491883372   25.87925406688429   -2.90849892350869
C         -25.58558553501927   25.09297266157201   -3.86167348522323
C         -24.68932758598897   24.15203451190158   -3.16427144603965
O         -23.99353985453377   23.31573507914767   -3.70519915039713
C         -25.76785476883185   25.24939956584771   -5.20484252469264
C         -26.67844252625432   26.22655698958978   -5.66601972706350
C         -27.38169671567636   27.02442653747194   -4.71853498460986
C         -27.17408934408030   26.83482495049813   -3.33242814828114
C         -28.28356902236726   27.99988181146470   -5.18988103810287
C         -28.48344983492399   28.17928596650146   -6.53162938964779
C         -27.79074327573947   27.39250370956250   -7.46363465638770
C         -26.90785299954845   26.43660765664905   -7.03979850501235
H           7.55178791209469   23.87628181417923  -18.62237815890909
H           8.43432427121159   19.00218923012844  -18.03771027178565
H           9.77061809701285   19.00589198512300  -20.06069487155028
H          10.73875247951054   20.19836447538692  -21.98551854002243
H          10.32296981903738   22.60693913935024  -22.29191467495134
H           8.93413405021377   23.84153838607325  -20.67461207335566
H           4.62434911103980   22.51794024163247  -14.47210962056123
H           2.68648954547142   17.47420029521809  -13.95448502880725
H           4.43733485312446   18.72616104596641  -15.38231840903745
H           1.11482033351970   20.72180302430537  -10.73454595637009
H          -0.63959850303168   19.45493861654394   -9.28890037515355
H          -2.47621386011343   13.70320159691736   -9.56668903059120
H          -0.71294470521780   14.93499647239842  -11.00605476825314
H          -4.13240965090358   16.10834436931714   -6.92450452441172
H          -4.04166414184009   13.21298001766375   -7.90726254426819
H          -5.82381936608741   15.75208651917728   -5.75352210239414
H          -8.49711793836495   16.84681423306472   -2.80707556224356
H          -6.00383209743598   17.45982202839348   -4.37484463074608
H          -5.87318579504775   16.47998808467278   -2.89982477787500
H          -7.17548194665938   19.09249339716926   -2.98864822515505
H          -5.71578598844007   18.75602327987835   -2.32294736572082
H          -8.01525676604990   16.97949553457863   -5.81265045867105
H          -8.51459790877909   18.35672413944589   -4.80210286211116
H         -10.05284817685174   15.88955063309304   -5.02289122024561
H         -10.43159247577083   17.32648765544273   -5.71913837503879
H          -9.97040317966019   15.44361167837657   -1.93708963833442
H         -10.61817442651183   13.41061978670443   -0.64415323513775
H         -10.65348064279248   11.14580826733628   -1.69996509894664
H          -8.83423653425649   10.75138017149152   -3.30387877094349
H          -6.96741519057237   10.92752829441126   -5.16418278226372
H          -5.23690735963218   11.62754992326669   -6.75652250178763
H         -12.08730437637351   13.23918640774663   -3.31190955812754
H         -12.67113787891042   14.72884594324311   -0.69950982955951
H         -16.63701915486371   14.50195206079723   -4.45271930713202
H         -14.34867701057609   13.40410693824335   -3.99020897471314
H         -18.65958882174188   15.81078051678205   -4.36333013521813
H         -20.43676932895072   17.63311937247862   -3.87740358416379
H         -20.49431780939174   21.89022631095441    0.43914070156356
H         -18.80967472418295   19.97189761836209    0.02863866495094
H         -23.31173674926486   21.98639509756843   -2.31074730683965
H         -22.30867619086571   23.28168499925705    0.27494127794109
H         -24.11956521170597   24.68412755193439    0.22396098906891
H         -25.22246703147207   24.63645810356434   -5.90720719827146
H         -27.71742462147434   27.45913910518324   -2.64114287708222
H         -28.81575545043263   28.60240086487898   -4.46834461989070
H         -29.17698366329536   28.92894955438764   -6.88234573609440
H         -27.95984757748502   27.54768185352227   -8.51885230805934
H         -26.37117270963824   25.82748745903746   -7.75265550162368
