115
 SCF done       -211.946040598888          0.000651003794
C           5.17109913967157   -0.34844245896663   -0.24895604421882
C           5.14911879162022   -0.09630109665572   -1.58398523065243
C           5.45708376526964    1.15528483321429   -2.16075249739403
N           5.74607760199421    2.15242515228644   -2.64676653878485
C           4.93781965805956   -1.14277243241866   -2.52305364300364
N           4.85267088460415   -2.00675993201601   -3.27070336490466
C           5.43059533981536    0.55076636094223    0.84329089167058
C           5.34748160600980   -0.15728504904525    2.07942474321345
C           5.57562440662442    0.46235550436964    3.28006810881132
C           5.89560930205095    1.83469464448918    3.29862724044580
C           5.97248701737410    2.55139904323833    2.06677038431336
C           5.73643223317081    1.89117729930308    0.84376896724197
C           6.29460951751104    3.92498165642366    2.10181576403808
C           6.53038186608465    4.55902245721701    3.29009873292867
C           6.45596636230769    3.85232555825813    4.50139141317120
C           6.14511182453711    2.52068693373110    4.50538513340016
C           5.02880797814480   -1.55969592405979    1.84601788476588
O           4.95281709774966   -2.46765556561775    2.63308751270696
C           4.79805909131081   -1.70912459540021    0.30428761984250
C           3.33137904660911   -2.03075841548762    0.16521002958187
C           2.43838131656452   -1.36251951241654   -0.60358987551903
N           2.78599286926983   -0.43320431791174   -1.56598211002616
C           1.68129141693348   -0.01735953393127   -2.12275350982146
C           0.49234531833280   -0.60784743267083   -1.50649534124060
C          -0.72987398938186   -0.06867653254601   -2.14908501536701
O          -1.89072432155538   -0.29193105579735   -1.85370296640231
C          -0.20116103515050    0.81318835304506   -3.18088554711593
C           1.25890267391260    0.84924524071708   -3.14129366022497
N           1.74662630579457    1.66229462232447   -4.07848177226137
C           0.67784221552338    2.14090855390166   -4.72067374246951
C          -0.55533794628472    1.64513754412133   -4.21847101670820
C           0.94688585067689   -1.47822340840183   -0.53993528471995
C           0.19021940524456   -2.21968029292395    0.40590956892772
C          -1.13985067727316   -1.97554133626790    0.57498148557188
C          -2.00378911083699   -2.57589481524172    1.51290706497169
S          -3.57622238805677   -1.89073708679480    1.77273393787560
C          -3.98688418809445   -3.01512181333772    2.99937025952382
C          -2.97123819721521   -3.90870699038375    3.22290870069918
C          -1.84139296571937   -3.68682899968502    2.35497564085205
N          -0.84356684046023   -4.57007441322320    2.31354711841911
C          -0.88368253078312   -5.59607441761437    3.13313736959760
C          -1.89570247468800   -5.68156402117387    4.17078050769029
N          -1.80518572132641   -6.59582563225775    5.17985820345140
C          -2.74135741201688   -6.53055037920176    6.27913924899755
N          -2.92962163377478   -4.87997785280559    4.16338378479381
N           0.09101661081124   -6.56538369742304    2.92016063502178
C          -0.17048998972674   -7.96265343023524    3.20341880436107
C           1.19994132158287   -6.20732225209357    2.26304823361795
C           2.20437141091617   -7.04985676407474    1.85513992784757
C           3.27795295616619   -6.54938302852700    1.12098408628089
N           3.45478451454899   -5.21201544228657    0.93052731151076
C           4.62613198420208   -5.08320585713890    0.34126212998483
C           5.27430071498368   -6.37056435464065    0.10525582440478
C           6.59388313567817   -6.19083503936956   -0.52261617451190
O           7.39161322805749   -7.03377981236990   -0.86021547467479
C           6.69641355862794   -4.71721179646004   -0.60488421410232
C           5.52080656697765   -4.09026836593047   -0.10873887281082
N           5.68652503148385   -2.75101031683649   -0.18446163778067
C           6.93288881708850   -2.51837048918906   -0.68463292041327
C           7.57960354002395   -3.70733900443485   -0.97074838371105
C           4.40161502769896   -7.33035687672640    0.56321549537552
C           4.54875123795459   -8.74098407762867    0.48296460589841
C           3.51310711091013   -9.62078767194743    0.48994464036130
C           3.67905140943204  -11.02204893024170    0.44053558475535
C           2.64335441396106  -11.90565754439693    0.58154763456038
C           2.70424260554749  -13.35067692368766    0.45424893519820
C           3.83188907684984  -14.12569292413302    0.38451168273177
C           3.81656045423710  -15.53246253843538    0.27885625560620
N           3.87170890466716  -16.67622204406768    0.19623731527444
C           5.15792482929982  -13.64869338532634    0.45587722635213
N           6.26178891309131  -13.34056776317655    0.52702068595164
C           1.33376847130226  -13.85197337323377    0.45839086268897
C           0.45184708867296  -12.76026636153329    0.70248052274710
C           1.23565166507879  -11.52546749485183    0.84812949559222
O           0.80290021129761  -10.42929758502750    1.16454709719024
C          -0.90210525438101  -12.92672176491347    0.76541296731343
C          -1.44799415544157  -14.21506601784344    0.57226770298854
C          -0.57298099302148  -15.31119084861411    0.32194206886212
C           0.82570043927308  -15.10945752631063    0.26999511469300
C          -1.12807868907361  -16.59187920988627    0.12652663078898
C          -2.48238604441718  -16.78267794123603    0.17441676936371
C          -3.34318038971781  -15.70256738706915    0.41977254308181
C          -2.83698383397602  -14.44617387803160    0.61509028693769
H           5.51184043530606   -0.09536665688585    4.20276911596310
H           5.80044800163816    2.45189171666171   -0.07530087490679
H           6.35111005778564    4.46424568441229    1.16792056620448
H           6.77638315036494    5.61016111540558    3.30565793890776
H           6.64635926522265    4.37004714586203    5.42947580838117
H           6.08644673632497    1.97104416522907    5.43351789090161
H           2.99467085580759   -2.83080366163548    0.80933419111946
H           0.80818437141910    2.83895425844658   -5.52834980589086
H          -1.53297478371712    1.89393746331088   -4.58133547631491
H           0.69814775951959   -2.94380640887622    1.02544843543988
H          -1.60716343331080   -1.21812415599613   -0.04249476107092
H          -4.93584648086327   -2.96250309988499    3.49237240339576
H          -0.87797771036975   -6.90831861029695    5.42318051840815
H          -3.73653004682416   -6.37827858484451    5.86845856524899
H          -2.52163511623072   -5.70362466084292    6.96042813091193
H          -2.70441498888560   -7.47065928279343    6.82549823739901
H          -1.21492920299753   -8.09967512298291    3.46960020678348
H           0.46477069592433   -8.32438150352233    4.01496282599391
H           0.04007381843382   -8.56418169561553    2.31699703905808
H           1.28236052723602   -5.15880927744353    2.01957480957997
H           2.18449316192982   -8.09911101231154    2.09391882180866
H           7.30966057476973   -1.52089810588259   -0.80362069395717
H           8.56359337230984   -3.80922954315736   -1.38156358952264
H           5.56326932881374   -9.10451447431516    0.36997898669821
H           2.49949989940654   -9.25437570306507    0.50766276031416
H           4.68000382737521  -11.39687245912101    0.27177689695676
H          -1.55136233591670  -12.08382841483735    0.95196777971125
H           1.46013642089852  -15.95898561013810    0.07403074988098
H          -0.46140456710147  -17.42042494219098   -0.06209259354952
H          -2.89790204879395  -17.76747563466187    0.02260883874640
H          -4.40923027977515  -15.87074781556948    0.45248964438115
H          -3.49525563667399  -13.61047383634557    0.80336507701852
