105
 SCF done       -195.412294614328          0.000485391557
C           0.68634009414620    5.86979590375614   -1.49097598868111
C           1.18458178517509    6.76706831230062   -0.59035750094681
C           1.80709037231721    7.97768867905528   -0.96077168132891
N           2.31071187779822    8.97420317220629   -1.22423917107052
C           1.01890911909962    6.63978785825063    0.80630118937516
N           0.81880804731993    6.63327757003684    1.93628628443192
C           0.58849588434111    6.05876031643995   -2.93355846143046
C          -0.39213092240631    5.15832408835927   -3.44937525359843
C          -0.70983919611059    5.12782050562474   -4.77813061733762
C          -0.04420705509500    6.00172814474184   -5.66551499480489
C           0.94471313833385    6.89498574551456   -5.15797937665006
C           1.24914430309198    6.91033319706635   -3.77742183461943
C           1.60692072803319    7.75536116071424   -6.05712546434463
C           1.30957579281199    7.73571320288232   -7.39266495884592
C           0.33702708301976    6.85564037667603   -7.89138490601573
C          -0.32641025908407    6.00833685370234   -7.04626861112724
C          -0.91654084815364    4.32761895466695   -2.35627660702685
O          -1.80176768845907    3.50556919264337   -2.38329667163955
C          -0.05488388893177    4.66207376355050   -1.17608746854286
C           0.03996369617633    3.77861278843140   -0.15350283351591
C           1.06954864131728    3.70366257142235    0.82712140475313
N           2.21325122663218    4.35375595894844    0.69158791540381
C           2.98225098536855    3.96982319992301    1.73490108932157
C           2.28119172963144    3.00643092929299    2.58657791584106
C           3.13344964241678    2.59489364553940    3.70028714160779
O           2.90228959187589    1.78161495469751    4.57637928493602
C           4.36015959727954    3.39252019261788    3.48835945038948
C           4.22591318505914    4.20978113977883    2.26436956148123
N           5.34696538550762    4.94571668530906    2.05324531611582
C           6.14070138540116    4.65169777494356    3.05056858359575
C           5.58501754785402    3.68786591563915    3.98770856510049
C           1.03658466600174    2.83157388293434    2.02410283233885
C          -0.06345056147092    2.04526017817804    2.44676426954770
C           0.02574827053362    1.25112677192731    3.54172986847965
N          -0.98966849468617    0.49643908642929    4.01648921151418
C          -0.87088132073600   -0.45017298769695    5.01750017741320
C           0.29360349942390   -0.92716319266661    5.55164442578401
S           0.01254762378776   -2.14640039496849    6.72419709002458
C          -1.68259453252155   -2.02782195199794    6.51821964092760
C          -2.02283195025858   -1.08456344178977    5.59134139419821
N          -3.32258374199583   -0.69149307608573    5.25935567532047
C          -4.40210616311886   -1.49009704746281    5.16614670539510
C          -4.39769787512526   -2.84917196092521    5.07758647091292
C          -5.61520693946451   -3.55027346432771    4.97277398022946
N          -6.79516677223158   -2.94047927588104    5.10020427413868
C          -7.72273300411542   -3.89421476556013    4.95297147983209
C          -7.11127500449410   -5.20996271747447    4.69415629009477
C          -8.15234190684957   -6.25373640457086    4.58936113048605
O          -8.00712840043331   -7.44629174255881    4.43808522410313
C          -9.39269287343850   -5.48146211365213    4.75313563843684
C          -9.09123540869897   -4.05434328643495    4.97362793026086
N         -10.22925785337950   -3.34300735909587    5.13500228391467
C         -11.20074107282176   -4.22464872767997    5.03078856637515
C         -10.75038411941228   -5.57374461669554    4.79579785013542
C          -5.75611925295681   -5.00365928868867    4.69940044005628
C          -4.68369971768557   -5.90704175884365    4.46241294166517
C          -4.83322437237755   -7.11216847749626    3.85651862911066
C          -3.71807220239636   -7.95525720909646    3.62372065956297
C          -3.73016199735673   -9.07020837949000    2.84005159838128
C          -2.63706356266287  -10.00321386800145    2.63388542697894
C          -1.32889444718218   -9.83291233265100    3.00931718804204
C          -0.30662061616771  -10.77278585559152    2.76161259369781
N           0.57143501517051  -11.49341760932816    2.59427434937615
C          -0.80623031644106   -8.69138999275941    3.65092737480094
N          -0.30582353383824   -7.78960238436256    4.15739823559949
C          -3.16501529447461  -11.14690910760473    1.89864062014175
C          -4.52239810775035  -10.88315801871134    1.55719692089155
C          -4.90985705586194   -9.55595143784877    2.07066882515865
O          -5.94899145408308   -8.97190924323066    1.86333228515774
C          -5.27512141671978  -11.77431662047157    0.84944470158801
C          -4.69625202356277  -12.99892920432980    0.44744811902479
C          -3.34145188542638  -13.27493937635245    0.79177252293045
C          -2.58551979478956  -12.33074644101982    1.52328836755773
C          -2.77423688424092  -14.50035760774554    0.38580001537220
C          -3.50732370086864  -15.40890733706995   -0.32763493074446
C          -4.84101055400602  -15.13555194433588   -0.66663079664364
C          -5.42282041717817  -13.95653688668432   -0.28685587467699
H          -1.45685852369529    4.44142510963654   -5.14842862662450
H           2.01019326614076    7.58605833072153   -3.41970709751130
H           2.35326117398770    8.43235540686577   -5.66865249997957
H           1.82269011774580    8.39841010858623   -8.07316680238478
H           0.11679966251416    6.85236080828483   -8.94830704683434
H          -1.07615735004711    5.32879596391499   -7.42417137295729
H          -0.69527558454269    2.98147920928575   -0.15376283974461
H           7.11344227313391    5.10601986232232    3.12458072546168
H           6.07696955538846    3.32037752571120    4.86657825376339
H          -0.98232405424231    2.09329335916333    1.87852580876759
H           0.94632234338169    1.20651613100456    4.10588584723355
H          -1.87510084670266    0.53190457549904    3.52654135847054
H           1.29870986333867   -0.63809394337914    5.32190509441354
H          -2.34239211060310   -2.62762828916795    7.11133644569177
H          -3.47628963659779    0.30654854910490    5.20944786345266
H          -5.35937744537439   -0.98991063273824    5.11007776788526
H          -3.47041431949398   -3.39948197501306    5.05546619229186
H         -12.22626212589380   -3.91155413101532    5.12436152521245
H         -11.38036251123212   -6.43376257536709    4.68319339592682
H          -3.68848699082795   -5.57962503440578    4.74038985784082
H          -5.80726845634277   -7.43925080495549    3.52113615765689
H          -2.79775345640732   -7.68264589488508    4.12644444546166
H          -6.30129469834099  -11.54753297133688    0.60116415391355
H          -1.56389064283604  -12.57152342174546    1.77131495371582
H          -1.74677842547857  -14.70591952935668    0.64834914779457
H          -3.06345173876726  -16.34392957561033   -0.63516285179920
H          -5.40486016084603  -15.86386554848875   -1.23020586482626
H          -6.44928263020045  -13.74027437749846   -0.54465791576597
