128
 SCF done       -223.903074188322          0.000508128533
C           5.98122211770373   -0.27332376537124   -0.17968478030362
C           5.71485899023303   -1.61281364049835   -0.14054371927542
C           6.55676383158054   -2.59278571616499   -0.70676052975334
N           7.21099582516007   -3.42062625097248   -1.15773123676855
C           4.50918596822901   -2.15584015607565    0.35301207816937
N           3.50938390883982   -2.63479253583597    0.65066160248107
C           7.05292913692442    0.36557938644603   -0.93352192092730
C           6.71437800076603    1.73742161674531   -1.13789347095404
C           7.51693633229112    2.57380661448792   -1.86102787215820
C           8.71487836695583    2.07119028935056   -2.41527100605719
C           9.06711340947369    0.70671741152442   -2.19915343113248
C           8.21740797957937   -0.13748874199038   -1.44831168131769
C          10.26747373604281    0.21964526215615   -2.75527470051138
C          11.07976795362870    1.03711198660847   -3.49296852328624
C          10.73164206682440    2.37955411873122   -3.70631450103690
C           9.57493870472676    2.88557590625544   -3.17873620302460
C           5.44100985722435    2.03264280920175   -0.46347536094610
O           4.80007027730642    3.05836277377274   -0.47045629765130
C           5.11041922172246    0.78756654878583    0.29498215466239
C           4.22134659347192    0.82520716308664    1.31446778214966
C           4.04513041085924   -0.16512865938105    2.32604097126509
N           5.03643413148500   -0.95270895750092    2.71473293413586
C           4.51704203427096   -1.74522794602415    3.67622232320728
C           3.10131291410220   -1.44959310218109    3.90640254411539
C           2.54592654263745   -2.36162831850323    4.91610452668661
O           1.41002665677455   -2.42479931256908    5.34025896279785
C           3.70922937944575   -3.19463406597776    5.27716064572717
C           4.89364446875137   -2.78245672922743    4.49851036201547
N           5.96636283956760   -3.54617412336822    4.81496822390868
C           5.52926520874321   -4.39095118196720    5.71870201913179
C           4.12808516704103   -4.22849915985812    6.05156177492568
C           2.78473672579991   -0.41755996546960    3.05235877688735
C           1.55733782416400    0.25339576055895    2.79956647417472
C           0.39775768220408   -0.09257792585016    3.40488105199673
C          -0.89305425844143    0.48231829828279    3.14840728863773
C          -2.01282621863201   -0.20379842528216    3.59102877237227
C          -3.29958136318694    0.25763272738566    3.28037472998229
C          -4.57121924638425   -0.27341784804177    3.52581414655806
C          -4.93810309503602   -1.49292851410796    4.28047212166369
C          -4.24964597132470   -2.76879683582206    3.75825446541145
N          -4.91414729414897   -3.94517565210425    4.29952246382558
C          -4.62369763815499   -1.28504081353811    5.79926157301741
N          -5.16150897060312   -2.29781234629616    6.65910193513797
C          -5.52203066114981    0.62192696522917    2.91300432361151
C          -6.86070807089423    0.53740738940057    2.75448365921198
C          -7.57567700470011    1.50770896510974    1.89062520357200
C          -6.81388797991261    2.76579350907370    1.60854709610136
C          -5.47765840203420    2.83640670443288    1.76538079080456
C          -4.78018041828731    1.74711193550733    2.33369440052117
C          -3.43287902781383    1.50262567169022    2.54299493659924
C          -2.28131275827074    2.21592852321084    2.14968374452726
C          -1.05205052349719    1.70944548835544    2.43230621166561
C          -8.99735929564772    1.80893960310740    2.26368426612171
C          -9.97707953982491    1.71327650198182    1.36301780645032
C         -11.32624786348732    2.18113625562118    1.55238395292634
N         -12.00404985848915    1.98501128746441    2.66284206786483
C         -13.24130783025855    2.48930570213562    2.44108560288146
C         -13.34708806545097    3.05327127095449    1.09281800421970
C         -14.69310841963055    3.60942767329506    0.85946103209383
O         -15.11820096624275    4.15848745824587   -0.13107113530667
C         -15.37543596148044    3.32463866783729    2.13652700338159
C         -14.45256658504949    2.64460231299895    3.07279123226109
N         -15.06842268351004    2.39197023074920    4.25149050016133
C         -16.28548146369845    2.86216906980791    4.10998725243959
C         -16.54269445546679    3.46105992664732    2.81672494419738
C         -12.11216050876746    2.89242212060286    0.50906718837579
C         -11.67251462541715    3.38673182718790   -0.75030507550633
C         -10.36483003820879    3.48512643926134   -1.10428343789174
C          -9.87607627617848    4.01637841244472   -2.32041828332775
C          -8.55497922416848    3.92804719687221   -2.66926985138729
C          -7.86578339483864    4.60755348459752   -3.75301007908800
C          -8.43902307762220    5.27817645532107   -4.80028527719072
C          -7.70455365278353    5.91501577000353   -5.82272737264856
N          -7.16128205699132    6.45145141565496   -6.67990330596181
C          -9.82728307768281    5.39414435527619   -5.02369208564061
N         -10.94133792749333    5.51938967355109   -5.27063490434067
C          -6.43051682132323    4.43833394372647   -3.53664138734144
C          -6.23987753903658    3.55570660296540   -2.43547809823671
C          -7.54799699305520    3.14215273111159   -1.91642876529147
O          -7.74838979254081    2.29043846081668   -1.06798128082364
C          -4.99883460017772    3.21452301743470   -1.98012403726354
C          -3.86240190544920    3.76518470446129   -2.61141632771837
C          -4.04074075818489    4.65071444980380   -3.71392969453905
C          -5.34063183432175    4.97567760332161   -4.16887552555821
C          -2.89821111264341    5.19647865559019   -4.33361071107609
C          -1.64263358974032    4.88603174146640   -3.88598334210039
C          -1.46943483727856    4.01526378215907   -2.79962167606702
C          -2.55650574438028    3.46584494014273   -2.17564718245677
H           7.24023618876116    3.60704087882442   -2.01030827397858
H           8.51119417371297   -1.16325977495968   -1.28960151051293
H          10.52964729011391   -0.81501787848639   -2.59075395080814
H          11.99555992868865    0.65371282887150   -3.91718547445079
H          11.38473957125709    3.01037030052218   -4.29051281850044
H           9.30186000253958    3.91825933697066   -3.33956361816069
H           3.63032840827934    1.73108873897874    1.39836158604381
H           6.19449924748715   -5.12128810654552    6.14562652076680
H           3.58359987662271   -4.81876742192856    6.76192892476644
H           1.58196890358836    1.03837353557388    2.05662940002343
H           0.41638557654461   -0.91313058867486    4.11048321731158
H          -1.87485274832745   -1.11521113894991    4.15104536869246
H          -6.02039541481684   -1.64668877436637    4.19465761146121
H          -3.21194157580139   -2.79976184290673    4.09303152430161
H          -4.24951545120677   -2.74151939675881    2.65618668482956
H          -5.83542582630691   -4.05820427735382    3.88837005829694
H          -4.37893390585205   -4.78146832108623    4.09630709137605
H          -5.02413958754942   -0.31515388746600    6.10736415320379
H          -3.53976300250777   -1.26460561171980    5.93022847464455
H          -4.86927720178445   -3.21886550326129    6.34594452244369
H          -6.17437792180189   -2.27327957405013    6.67814198535458
H          -7.44660436609597   -0.27337751727984    3.16399365847705
H          -7.61914430071232    1.00757024730145    0.90281321132802
H          -7.37757783418625    3.58984575117271    1.20250579619421
H          -4.93266330654035    3.72715201234885    1.48770519263450
H          -2.38863104833933    3.15138621187278    1.61939806235763
H          -0.16989078045543    2.25190539434603    2.13061401087951
H          -9.18072089630037    2.22402806917062    3.24368359031520
H          -9.76038546436208    1.30897401216494    0.38163418327263
H         -16.99399935727696    2.78385211375816    4.91628811701026
H         -17.46895772502694    3.90270265059639    2.50670830379045
H         -12.45033900949397    3.72619969990031   -1.42348615230506
H          -9.61551068629397    3.16181144258904   -0.40031876882189
H         -10.57102888608987    4.54707827917801   -2.95765201944703
H          -4.88652397184285    2.54233076873431   -1.14155066493580
H          -5.43859211301961    5.65228309868001   -5.00292481906047
H          -3.03437994800869    5.86595785323940   -5.17011686453358
H          -0.77448888130225    5.31036793049801   -4.36733726482976
H          -0.47113963871583    3.78199947662419   -2.46106508709343
H          -2.43204130446812    2.79123210351053   -1.34043381539551
