131
 SCF done       -251.103934043263          0.000612681122
C           2.67176691475123    2.13911442820998   -1.55991421307273
C           1.50936227755238    2.06786497164846   -2.27739409591527
C           1.49276123121373    1.84322202864207   -3.66902662534480
N           1.46974195124615    1.69035525376667   -4.80616351851811
C           0.22962769830497    2.12211169947042   -1.68167251567192
N          -0.81561359503812    2.10106541335335   -1.21134828144524
C           4.00252658666425    1.81293058662121   -2.06438576767074
C           4.84323778778072    1.49451293499845   -0.95709247089298
C           6.13733586683255    1.09270573147526   -1.12778889447192
C           6.66373845513898    1.00100875732441   -2.43499723706089
C           5.83818168044864    1.34416604921520   -3.54472508078097
C           4.50030368171071    1.75140002120309   -3.33866834788032
C           6.37829077970565    1.25968473531333   -4.84422322544210
C           7.66892324291572    0.85047747835719   -5.04044562821995
C           8.47993895642933    0.50951252600652   -3.94736569354659
C           7.98832834310385    0.58343878583810   -2.67259802776399
C           4.09840463245973    1.69409557279413    0.29486357395959
O           4.47027685483073    1.50435173925749    1.42885729318465
C           2.78185366328967    2.27993575968919   -0.11787388033083
C           2.04213509969256    2.89285040179016    0.83056662600125
C           0.95947991400298    3.84414423097022    0.73423702465520
C           0.15068062156705    4.05624435198614    1.86258156974613
C           0.33630892495874    3.25765638407346    3.11922817945034
O          -0.21616667253381    2.20407710271490    3.32377945786540
C           1.23961025221925    3.89961294552875    4.09323724594473
C           2.19961515959655    4.81929762472098    3.76288031498162
S           3.16445614272496    5.27514116667514    5.09729098605355
C           2.28378095068190    4.22320033892968    6.13391804900390
C           1.28854910966338    3.56244807600474    5.48518468917564
C           0.34989090570302    2.63431610761463    6.17499366402852
O           0.74558541390046    1.78160568331162    6.93695125484942
C          -1.08537300108827    2.86467680821754    5.89200146953335
C          -1.56974871876006    4.11805880614129    5.52235763603026
C          -2.91789628756579    4.29052216198501    5.27194288921285
C          -3.78948611252055    3.21813338234210    5.37931077361497
C          -3.31480303996921    1.97302642008821    5.75858587063119
C          -1.97059972988341    1.79770495735875    6.02384845778071
C          -0.84318792948256    5.02207576573217    1.83825938932515
C          -1.01581393327456    5.82226724266762    0.72543157282248
C          -0.20519932432254    5.64663754210499   -0.39440137541455
C           0.76186065088890    4.65099683625837   -0.38782770002764
C          -0.30878466110716    6.54920756757498   -1.54214789923581
C          -0.38258632825655    6.09528034182531   -2.86359649075891
C          -0.33082097569101    7.00058433505951   -3.98125394403789
N          -0.35412731502920    6.50585706320511   -5.24556490064944
C          -0.56330581460849    5.24913513094978   -5.41364794294321
C          -0.73249990937029    4.36375356375144   -4.30189322007395
N          -0.58257166490571    4.76983274420958   -3.08944550039997
F          -1.05977633642593    3.09344121675116   -4.50278918886625
F          -0.60435872806424    4.78144862678158   -6.65748661388673
C          -0.22158942002510    8.38277895672076   -3.80063233963761
C          -0.25901534582878    8.84538359439842   -2.48175567295996
C          -0.31271099235261    7.93804689431990   -1.36082788376837
N          -0.33929297244167    8.59912155194287   -0.19490311948918
S          -0.30250291956477   10.16739084300779   -0.48884918344616
N          -0.25053847292370   10.12623538602577   -2.08578620681457
C          -0.05699391988032    9.29031615564596   -4.93378716028424
C           0.93802499368445   10.27784268390888   -4.90177684614611
C           1.88243346951558   10.30342655806354   -3.75531010504663
O           2.40286448269899    9.28202308575689   -3.34141278623698
C           2.17228406672962   11.58888803431510   -3.12175448132751
C           1.56511451246507   12.79741470328403   -3.33545854607533
S           2.19349947449696   14.02053243081514   -2.32649734492571
C           3.29446969204401   12.90873877365363   -1.59127032101967
C           3.16833196257879   11.65840332686016   -2.09476339090378
C           3.94053079728933   10.43765363709928   -1.69246458350064
O           4.99982297409662   10.14997993606133   -2.19074119186382
C           3.30611669382746    9.64354410087817   -0.60372090094267
C           2.64760302554197   10.25744275078464    0.45834281769717
C           2.11510726155091    9.48883764527057    1.47940333229069
C           2.19247309285173    8.10749542822616    1.42478125685154
C           2.83647411047802    7.49246822767655    0.36297329071337
C           3.40783045179099    8.25560507011707   -0.63798612538659
C           1.09299122568852   11.11809997911666   -6.00073167514022
C           0.30681485098412   10.95566081373810   -7.12264513058486
C          -0.67499945904381    9.95300731683831   -7.17792243414590
C          -0.87015097565025    9.15959773970164   -6.04773760618524
C          -1.38019012433969    9.77282664510809   -8.42401992831902
C          -2.15232873715815    8.76031666800815   -8.88908191236431
C          -2.59575880433012    8.69872326157520  -10.28597755337932
C          -2.79389532082517    9.76193806311015  -11.12153869053616
C          -3.24783683290797    9.63701846285070  -12.45284077531223
N          -3.61031519062889    9.59765943286742  -13.54083554081790
C          -2.63089018190448   11.11839108645851  -10.76377964689994
N          -2.53651836812969   12.24073564291989  -10.54163392775937
C          -2.85541009910923    7.30398673338334  -10.60557667608689
C          -2.80084306491198    6.55160481797501   -9.39806316985070
C          -2.53606827801732    7.45311824345713   -8.26742970540445
O          -2.68855396977921    7.18253932491185   -7.09721462849931
C          -2.99176256610851    5.19979269688020   -9.37808120972972
C          -3.24461884980505    4.52616142300182  -10.59317347369452
C          -3.30676461643435    5.27224106609266  -11.80679831986442
C          -3.10836901507414    6.67141918944631  -11.79489473198634
C          -3.56530494366976    4.58671862972528  -13.01165204701725
C          -3.75141190506816    3.23124148295445  -13.01957644637937
C          -3.68575181451833    2.49785461206207  -11.82502147780824
C          -3.43818568947955    3.13135394325777  -10.63757033831722
H           6.75127866805009    0.84672550714190   -0.27416432103590
H           3.90364178217949    2.01324606467023   -4.19809905961618
H           5.74894081122299    1.51953033449933   -5.68269046098029
H           8.07248421129671    0.78639194173244   -6.03982452028858
H           9.49605111015416    0.18841713199140   -4.12085428470276
H           8.60781251113453    0.32261714260276   -1.82704651133345
H           2.38561833551599    2.69062591205109    1.84234137666170
H           2.41121867840688    5.22775108626212    2.79409030666787
H           2.53146852654862    4.16232262169784    7.17500873051082
H          -0.89603265415610    4.96131936745920    5.45110353888640
H          -3.29354522995241    5.26455164309374    4.99160584998819
H          -4.84000391276425    3.35645823788853    5.17011529461029
H          -3.99509278555313    1.13926346318089    5.84598245823165
H          -1.57904091680470    0.83562237584993    6.31645201226104
H          -1.47618255464987    5.14929353743715    2.70410465733316
H          -1.77527148419678    6.58733000194518    0.71759579796110
H           1.41540814792528    4.55397114724093   -1.24125285398532
H           0.76879683794909   13.02145233397050   -4.01670836598776
H           3.97083487631888   13.25691344342011   -0.83610279547499
H           2.57835691770826   11.33520465590247    0.50049468661039
H           1.62173544657950    9.96866292274428    2.31129601548789
H           1.74385694602970    7.51484422278922    2.20770564594790
H           2.89715054264165    6.41453302661307    0.31723039203836
H           3.91798078143410    7.79768695123433   -1.47089016561175
H           1.87189816292808   11.86623594228461   -5.99332946628803
H           0.46622863981062   11.59314740599994   -7.98019063772845
H          -1.64968257378615    8.41898647627204   -6.03365100887454
H          -1.15760777108387   10.55597243262556   -9.14148295871335
H          -2.93667896923712    4.65047842133025   -8.45059790724411
H          -3.14886326879609    7.20776738457691  -12.72991322883776
H          -3.61489803431458    5.15505091525213  -13.92882014643567
H          -3.94920497301673    2.71581778006885  -13.94744747398037
H          -3.83196433690049    1.42846455227336  -11.85082226359685
H          -3.38494043352309    2.57309716314152   -9.71471349906434
