120
 SCF done       -218.795838810707          0.000917561131
C           2.79022106199345    8.45081544393422    3.44994169566712
C           1.96851993081155    8.89491259203352    2.45422753601654
C           1.99208745037130   10.21530769262808    1.95705672884423
N           1.98250618305784   11.27881172173837    1.52717357263563
C           0.91479750893655    8.12704218793267    1.91061002579608
N          -0.02601856644752    7.60083590312805    1.51637421050269
C           3.69447025589595    9.27089597898479    4.24879044338696
C           3.98977106636638    8.58003595645920    5.46301285896961
C           4.79057528644329    9.12950616552505    6.42458873009289
C           5.35180867882247   10.40665606230990    6.20647069027411
C           5.07639479715665   11.09294432788368    4.98723858857712
C           4.23669680070710   10.50536703149190    4.01322983162941
C           5.65365826972231   12.36177992101500    4.77786351186714
C           6.46221070566305   12.92809343945107    5.72554896211457
C           6.73090732715570   12.25300006025143    6.92603071324401
C           6.18704997591589   11.01975749996875    7.16178528379724
C           3.33454351237126    7.26563399671998    5.44815812967470
O           3.29483826559933    6.42488063802233    6.31661702924215
C           2.75888548180403    7.13872544334707    4.07041249600157
C           2.48251194865130    5.90463011766481    3.58457940272827
C           2.28153904326212    5.52962972739745    2.22659123857501
N           2.57242676822240    6.33656373185015    1.22050117261262
C           2.31747658233508    5.63238088881941    0.09562699898175
C           1.83749405094745    4.28509191298566    0.40665677492066
C           1.55239391888299    3.54527298645564   -0.83010618735292
O           1.16076294115171    2.40462635418643   -0.95910364963286
C           1.87136720282407    4.53442302860991   -1.88147557588213
C           2.34679390340058    5.79271205885406   -1.26851721818192
N           2.64699510437868    6.70843788272732   -2.22240976922830
C           2.38335229433804    6.11530231961273   -3.35957478347147
C           1.89242136112455    4.75415705857434   -3.21912642220851
C           1.80646566009307    4.19802668290446    1.78073034878904
C           1.41327760180580    3.14697535822093    2.64379758504790
C           1.02705786392801    1.92224253516715    2.19582315654050
C           0.63399844035292    0.85575856787335    3.03555210920578
S           0.25897125818059   -0.69649283017523    2.30906226310345
C           0.49549472136825    0.83367895684455    4.42036244979675
C           0.09369581111086   -0.40402619256108    4.89762425489065
C          -0.23674081936527   -1.03940775537718    6.17421998169210
C          -0.32483908479097   -0.45223790768592    7.38748123506034
C          -0.68123882741935   -1.24813327810007    8.61944977100389
N           0.44957425823263   -1.99882600389473    9.14930889281960
C           0.00756998609308    1.00197326879696    7.59818839460225
N           1.39221844411114    1.29528780523634    7.23716079798070
C          -0.06244612567328   -1.34728367748907    3.85737576893042
C          -0.43331715097325   -2.57679151125464    4.41704318314071
S          -0.76121263709602   -4.15928412952170    3.86678954788165
C          -0.53534507199438   -2.43328654756939    5.82210293361444
C          -0.87470898934210   -3.63212090427548    6.43299592307695
C          -1.04373753216923   -4.67739121252483    5.52579554972556
C          -1.41010729290581   -5.99989954219911    5.82351836726559
C          -1.54100464049835   -6.98451226205600    4.88722067348953
C          -1.97445773435483   -8.28691750277496    5.19610032624099
N          -2.43170641234296   -8.64568413856296    6.39710560663445
C          -2.88731900103699   -9.89586834688512    6.25907236257829
C          -2.72382854907471  -10.38003771682311    4.87231838659895
C          -3.23172805709431  -11.75990858514240    4.73603538861421
O          -3.24683416175801  -12.45998978724569    3.74877622504023
C          -3.70669731094191  -12.05528139031960    6.09786028521663
C          -3.47973871440231  -10.90138105004554    6.99169184947796
N          -3.90322638766154  -11.17693379150268    8.24601735494648
C          -4.36522463159388  -12.40659998110331    8.18919395491229
C          -4.26966333060895  -13.01351862348103    6.88291777426803
C          -2.10355370451596   -9.37371765492132    4.19323376793365
C          -1.64989150105802   -9.30957808784578    2.83632818588218
C          -0.45850656870590   -8.77918095630633    2.48721673491947
C           0.03617857714544   -8.66610325272014    1.15344540660445
C          -0.69310430049310   -8.32946650120037    0.05547035622635
C          -0.18721081964923   -8.23081872096364   -1.30375435637113
C           0.93705522142176   -8.84200281988562   -1.79099932791789
C           1.37250619028026   -8.74230632087173   -3.12891522377528
N           1.77822788840202   -8.69370526522138   -4.20166980269541
C           1.79375190621905   -9.66984215566526   -1.03442469259967
N           2.52944234803915  -10.35880855029701   -0.48466624820185
C          -1.12889908930021   -7.42964049997992   -2.07276170311515
C          -2.23702261557216   -7.10793387550178   -1.23793507414645
C          -2.04419295527712   -7.70114135963799    0.09716691186062
O          -2.80396761543623   -7.62199934192870    1.03804462676981
C          -3.28226163967955   -6.35317177738503   -1.68747118909530
C          -3.26613900773017   -5.87653540252566   -3.01731179604924
C          -2.15812006043763   -6.18956296299020   -3.85701453708999
C          -1.09030830306568   -6.97355603150215   -3.36402690781856
C          -2.14965827613124   -5.70240596661882   -5.17994649198832
C          -3.18543439949569   -4.94390387929419   -5.65322378095941
C          -4.27655783098295   -4.63751490933315   -4.82625397304753
C          -4.31639919986957   -5.09438117206999   -3.53687014885454
H           4.99705833985168    8.59361698512133    7.33922343775985
H           4.05153878508869   11.04055613839078    3.09513116994936
H           5.44187371274768   12.87887705219192    3.85375548500921
H           6.89970881787607   13.90028573751221    5.55553588234616
H           7.37138424126369   12.71478688873086    7.66229625632084
H           6.39052019028525   10.49508953375936    8.08378969786590
H           2.50898532769494    5.10296213553050    4.31444017868030
H           2.53684642633964    6.63206251144585   -4.29096380740717
H           1.62076499650357    4.10407660239450   -4.02714426760287
H           1.43226258553244    3.34497667243663    3.70571262663997
H           1.02096218159368    1.73112519404890    1.13027497011810
H           0.71792701623763    1.67832167810457    5.04079233426032
H          -1.48435553804563   -1.95320560499953    8.39756642361364
H          -1.03124804088811   -0.58196013981998    9.41179891839626
H           0.82159156522655   -2.62783835861582    8.44583050253308
H           1.19505823696402   -1.37008171135905    9.42812416666944
H          -0.22604949577607    1.27207829328545    8.64084564352491
H          -0.63470524083934    1.60838554156541    6.94909775766521
H           2.03114997217252    0.73960947948060    7.79573980538449
H           1.59832036250236    2.27185891575645    7.42006811076483
H          -0.99837996887896   -3.80258055717488    7.48671887530029
H          -1.60396801001167   -6.24852089134532    6.85824281214445
H          -1.34586162876789   -6.76635685898468    3.84546269721045
H          -4.76947505707596  -12.87362793500650    9.07066097340583
H          -4.58670431857908  -14.00571524911896    6.62940128539627
H          -2.27789616011616   -9.78526448082009    2.09667069638824
H           0.23417302172605   -8.48573207245864    3.26811062971978
H           1.10754798782632   -8.78857764779366    1.04134111883985
H          -4.11213965979118   -6.12299816827479   -1.03576047422758
H          -0.26114123205114   -7.18713683942937   -4.01990337464133
H          -1.30797474017069   -5.94215313521784   -5.81303187343277
H          -3.16977424190177   -4.57556833903717   -6.66803237409815
H          -5.08497887675392   -4.03711776940919   -5.21594464666951
H          -5.15385649634026   -4.86138477482234   -2.89552809611017
