128
 SCF done       -211.608012856383          0.000727713381
C           1.12525699486718   11.14832178877783   -7.97355502175094
C           1.72913783056306    9.93798575158837   -7.68929131155667
C           3.11712099733113    9.77288015256521   -7.54081384945882
N           4.24125350939589    9.60005559245423   -7.37995804682340
C           1.00217199308242    8.73398705142380   -7.68283950114089
N           0.41829035023857    7.74534190925131   -7.75481068453773
C           1.79807324025156   12.34050852136115   -8.47404853358022
C           0.83025822276796   13.14554284738482   -9.14568760231612
C           1.18030920925363   14.30218812431032   -9.77737128867337
C           2.53103310357933   14.72220381265976   -9.75204391117508
C           3.49741262794659   13.93009330759365   -9.06869853801261
C           3.10906107715697   12.72714661718225   -8.43312957839585
C           4.83810136225685   14.36332460242274   -9.04756626871033
C           5.21029516395299   15.52170777652860   -9.67432030088093
C           4.25869305878183   16.30004487357333  -10.34859788480476
C           2.94752116643736   15.90839508069585  -10.38647626214769
C          -0.50480388923611   12.52292409693274   -9.01564898688634
O          -1.55735292739433   12.91188445721694   -9.47354778440062
C          -0.28839890043105   11.34928427973988   -8.14203083316795
C          -1.32774346085086   10.73219553254883   -7.50687731552191
N          -1.23168339724519   10.05835743821017   -6.35404715205695
C          -2.32031729580968    9.26632170793977   -5.81128954998445
C          -2.58013664937719    8.00732583078974   -6.65166835598184
S          -2.75233081334026    6.62052600841463   -5.48689171082350
C          -1.47421347866020    7.37485841164323   -4.45156351873630
C          -1.88768247347084    8.84682003274738   -4.38440838623485
N          -0.84634793407543    9.76622413976950   -4.01634075785630
S           0.16743510717126   10.02659231598333   -5.37209454087187
C          -0.35924304536700    9.93032673907596   -2.74133055047435
C          -0.80961115862139    9.31661134422507   -1.63774335536183
C          -0.31999272806247    9.55231788745789   -0.29590034872088
C           0.43703159080315   10.64229758419834    0.05207320571375
C           0.94735515175312   10.77204573612568    1.36312903404761
C           1.75910120401051   11.73011164066956    1.94495316065098
C           2.25903721493964   13.02100782908051    1.38475016784869
C           3.11327482284569   12.83681846775294    0.11966442485481
N           4.01313929772714   13.96904142914890   -0.01786193101258
C           1.07455910634912   13.97588135875035    1.14974828153728
N           1.54453226151597   15.32744891137482    0.87496913435288
C           2.01511085629291   11.29189469418983    3.29724040207977
C           2.82345673827079   11.79070070150668    4.24712773958557
C           2.95613556493014   11.13855475796808    5.58521729694628
C           2.07959812003996    9.94264371164573    5.78085472393742
C           1.31702275213370    9.42708494818966    4.79959971945504
C           1.26871913597007   10.04768456553262    3.52788824841321
C           0.63895422254289    9.73303468264204    2.34330415051571
C          -0.18463624161229    8.64493045617105    1.96834924113272
C          -0.64487970443894    8.56604590895222    0.69685079857244
C           2.74192992555392   12.21192091146374    6.62324577148006
C           1.55797372872259   12.46819562161151    7.16010908982454
N           1.37380176826207   13.51860322057163    8.08475757090322
C           1.17806855355353   14.89320167975876    7.63727768377265
C           1.84621271023644   15.26879255853714    6.33528934465878
S           0.76417796980483   14.68428240669443    4.98329914678392
C          -0.72625265611047   14.60066961143291    6.03844204237581
C          -0.35001914185074   15.07160341992710    7.44830660596133
N          -0.97361136834932   14.25038865644077    8.45991871387646
S           0.22496485516948   13.27599550279114    9.28852216944681
C          -2.22342672302987   14.40378404683687    8.91858065028305
C          -3.13534620295106   15.30762752914593    8.46140437615052
C          -4.41030465476773   15.39883407385740    9.03942564884201
C          -5.35534986572679   16.33809027200448    8.70665471861993
C          -6.66280849450275   16.49323585429842    9.30250602423891
C          -7.24158202572753   15.69670080468574   10.26094308706532
C          -8.52682880067926   15.90949699539950   10.79785944401376
N          -9.56199750901904   16.02421865947680   11.28279881029068
C          -6.65505562877007   14.55696202353784   10.84462009315243
N          -6.24947485041011   13.61503530179285   11.36414356575261
C          -7.28861718816671   17.66695502035581    8.69861006830562
C          -6.39686222000289   18.20831947384175    7.72974808911240
C          -5.16662779010036   17.39522842488431    7.69426580421121
O          -4.20085500679170   17.58096905674988    6.97420887884413
C          -6.71016964172856   19.31895673160314    7.00220433357622
C          -7.95321127678880   19.95689699313891    7.21692089431421
C          -8.84937825997449   19.42381388818371    8.18638759759568
C          -8.49811513175256   18.26791613926970    8.92200820266168
C         -10.08393664897971   20.07002630709353    8.39792408489221
C         -10.41937961353901   21.18997707468397    7.68681526965827
C          -9.53641093486139   21.71376000343279    6.73132786993766
C          -8.32987444590382   21.10995210725972    6.50125176389179
H           0.43794201613463   14.89201611089583  -10.29434510078748
H           3.85764489673293   12.14263598667339   -7.92057908173986
H           5.56796985454566   13.75834478770026   -8.52967721857060
H           6.24088994682430   15.84343905779063   -9.65448183464865
H           4.56872512649900   17.21114852610303  -10.83831806880927
H           2.21020200357108   16.50412703305126  -10.90472237266031
H          -2.33186059537628   10.87299301667916   -7.88851296706698
H          -3.21499629970916    9.89787676492428   -5.77294267011704
H          -1.72305815160996    7.79475733503682   -7.29575567972603
H          -3.48413175557905    8.07526544910059   -7.25051343719511
H          -0.50552743978893    7.26032733040980   -4.94336529548750
H          -1.45581900990990    6.88953182734681   -3.48024541744448
H          -2.72143462897730    8.96542104888947   -3.68596452616016
H           0.44227639686705   10.65366236609735   -2.70322509950823
H          -1.57588742052664    8.55896212891662   -1.72511460817648
H           0.65552847521809   11.40813545053693   -0.67455594459105
H           2.91166880365507   13.49075018479170    2.12675825733625
H           2.45461448260832   12.69931541026065   -0.75282909113389
H           3.72092305144913   11.93146293216870    0.22495628361080
H           3.45368265956609   14.81789125928085   -0.05026935235580
H           4.53614804454514   13.89896680773631   -0.88467288729171
H           0.41765619953693   13.92703619955068    2.03477488343106
H           0.49622234593359   13.64010088359978    0.28511698767351
H           2.01217113353766   15.69305203811519    1.69940035374706
H           0.75494295560725   15.93480365801293    0.68006911132662
H           3.41255338981091   12.68313774913410    4.08603200895012
H           4.00214705687472   10.80588649135160    5.68245858675922
H           2.12138348326945    9.48711921976446    6.75890431369874
H           0.72707755739945    8.53803394077390    4.97171239003289
H          -0.42968319870425    7.88592128312014    2.69708977887649
H          -1.26534021563803    7.73354513277504    0.39576479737339
H           3.59550345859000   12.82965100387390    6.86363648587527
H           0.70378672223674   11.83187537657286    6.95810001347211
H           1.52709465628595   15.53930603969602    8.45269869369881
H           2.82562486902095   14.81645741343154    6.21255345129339
H           1.93298386170228   16.35319709410674    6.26299012814705
H          -1.06521777079987   13.56392765295123    6.04962244824943
H          -1.50257665295936   15.22103630409160    5.59521792964249
H          -0.62692916661699   16.12113491632056    7.58977747241374
H          -2.48291736518895   13.72780055616241    9.72334661683816
H          -2.89337882703310   15.98821459358788    7.66178552297365
H          -4.64026737078077   14.68539108226257    9.81952612292960
H          -6.01666122760853   19.71032036266007    6.27239885060148
H          -9.19912336872008   17.89053394147227    9.64923843365642
H         -10.76024886541439   19.66219138285272    9.13499175080651
H         -11.36722505003880   21.67849857166495    7.85711342350141
H          -9.81657545121984   22.59827150307662    6.17864896582889
H          -7.64572600359903   21.50947900782126    5.76656310805480
