132
 SCF done       -223.531161295792          0.000922960769
C          -7.83931530996004   -3.21601512243749    3.56245262274114
C          -7.54020014613124   -2.38670337110207    2.50342364578250
C          -6.27054747637285   -1.83510824538536    2.25999051938488
N          -5.27663618825972   -1.30154973321969    2.03926144298761
C          -8.47886419369634   -2.02965178307433    1.51802842617126
N          -9.21418541937251   -1.73203194328635    0.68703604967964
C          -6.83779132215920   -3.87175377008307    4.39887815807665
C          -7.45263751544288   -4.97592829025991    5.05564622049856
C          -6.74074895385758   -5.82603037306667    5.84993661692642
C          -5.35469151893262   -5.60602943318734    6.02502880221962
C          -4.73947219905325   -4.48745996220436    5.39436320261599
C          -5.50561857035564   -3.62024338191984    4.58115895485150
C          -3.35888986442502   -4.27673303894657    5.58246981787945
C          -2.61530406043445   -5.13875367105380    6.34250436628252
C          -3.21965878799256   -6.24814583170689    6.95162004998185
C          -4.56120380373630   -6.47523497809509    6.79846314154154
C          -8.88621315191492   -5.00425846785448    4.70782129161536
O          -9.71903391875921   -5.81294531217319    5.05371911167678
C          -9.12044782428962   -3.79263517714571    3.87638978441791
C         -10.42355499352352   -3.41832141248312    3.65501400075738
C         -10.97564542009450   -2.16517271779437    3.32158414358637
C         -10.27866387783842   -0.97442324431363    3.36174111973769
C         -10.82809862965932    0.28165194858887    3.18234772933701
C         -12.26750171492369    0.48695397185599    2.99034848997591
C         -13.14945761198824   -0.53311383391081    2.88482274480856
S         -12.71084573117774   -2.18851138991406    2.98229310037304
C         -12.43608985835264    1.89698215527688    2.99551624227436
C         -11.19591395615032    2.52934952408393    3.18390033347816
C         -11.31392231644527    3.93870034482632    3.17977717893623
C         -12.60026638585468    4.33165059507535    3.00310968593645
S         -13.72328011824799    3.02034999849524    2.82795232963539
C         -10.17963670149227    1.53107870618909    3.27647260575566
C          -8.76788209771860    1.66593994822480    3.40273110437157
C          -8.08625908310060    2.64143266308617    4.03873430906834
C          -6.65326041838554    2.56655167325965    4.21608202341951
C          -6.08592677902318    2.98864217614342    5.39700691118014
C          -4.71330273636293    2.77012514763273    5.64407994815987
C          -3.91869372620144    3.00774205025191    6.75808666844890
C          -4.31970582562838    3.51236222966631    8.10257451443301
C          -5.09818865715299    4.85027032958546    8.04000220003172
N          -5.04605370018933    5.63670831132054    9.25298045928896
C          -5.12121015067138    2.43032558440341    8.85217350927784
N          -4.21087176454553    1.39885177304343    9.31975750467536
C          -2.57854731417744    2.59297918941413    6.41188019576721
C          -1.42569209494473    2.63961702678293    7.10418040484679
C          -0.13480629627286    2.20015358918214    6.50404816956802
C          -0.25054482965480    1.63410311059853    5.11983413787501
C          -1.41646871687312    1.57094216966022    4.45150457850462
C          -2.60436512888405    2.06166283012129    5.04156065339434
C          -3.90365667011923    2.16286049828771    4.59087833557287
C          -4.50703278049710    1.78156950974653    3.36947896834036
C          -5.83885693965874    1.96472893476254    3.19967488879418
C           0.52786114010731    1.16470596726140    7.37147259197755
C           1.80734145150280    1.25538052700987    7.75092337697229
C           2.54640672752185    0.28339794118068    8.51728246819638
C           1.99450395096775   -0.82752441944928    9.10185415678902
C           2.70293393970223   -1.79549879831409    9.81578681265260
C           4.13607514051254   -1.62486663289478   10.07788241290363
C           4.88236188132298   -0.59857364221906    9.60623506757495
S           4.25329177104992    0.65410950683212    8.62666239356661
C           4.51477109799768   -2.72355374528405   10.89767220649097
C           3.40761053020909   -3.53435485304229   11.13183836917920
C           3.72377913736153   -4.64816871396891   11.93857015907006
C           5.03680522712224   -4.65032793610774   12.29091555290558
S           5.93833367431112   -3.31494419972970   11.65975672462253
C           2.26094486182753   -2.98423671126054   10.44636056409584
C           0.99803372887154   -3.59846019317950   10.46575863759235
C          -0.09739131429083   -3.26840557011325    9.71081793799275
C          -1.33530973411775   -3.89918687894009    9.85895942859947
C          -2.47883658543528   -3.51389151561887    9.19183710130584
C          -3.77346292439661   -4.14246258470046    9.28222372339591
C          -4.08401850237247   -5.31752272248603    9.92372223834868
C          -5.36927099731204   -5.89276599329929    9.94171122736336
N          -6.38531281991829   -6.42702415647097    9.99179201994380
C          -3.17053996696352   -6.14644195057084   10.60238361243075
N          -2.48995423550929   -6.88764425692374   11.15807241162329
C          -4.71640763613318   -3.33632113070682    8.51390032193126
C          -4.00419045555121   -2.25911434352862    7.91527823419206
C          -2.58718450092444   -2.33311229139460    8.31668779935635
O          -1.71446980673815   -1.54080078525833    7.99718277734089
C          -4.62336979855444   -1.33879784385044    7.12153945210856
C          -6.01766356909956   -1.44062105387110    6.91320055486873
C          -6.73666051617515   -2.51693187121517    7.50540301441298
C          -6.06104104026375   -3.46943985548078    8.30227622774930
C          -8.12700678791111   -2.60432550721920    7.29430920050221
C          -8.78584306021190   -1.64392667343021    6.57569934925512
C          -8.08040777244313   -0.56462061101034    6.02399806264350
C          -6.72165163775974   -0.47934041851748    6.16508279848398
H          -7.22107464021163   -6.66378738674378    6.33287257851302
H          -5.01416767422492   -2.77816673635184    4.11933453831242
H          -2.89598335832531   -3.42407868621112    5.10719875976059
H          -1.55683146198345   -4.97076401145531    6.47734883925385
H          -2.61752242062161   -6.92091067852359    7.54510530408229
H          -5.03331128025028   -7.32494138136447    7.26958228960333
H         -11.14303013598861   -4.20140925220531    3.87955019084539
H          -9.23840188883323   -1.03262870045225    3.64185714591468
H         -14.20601103381868   -0.37635624473497    2.73340616005862
H         -10.49339207479386    4.62356303707142    3.29260690215238
H         -12.98135769524937    5.33318825952287    2.95858920039898
H          -8.20079755544142    0.83206995313199    3.00693590676711
H          -8.61534972429917    3.43421524840435    4.55023221618349
H          -6.70970747739838    3.43533344714973    6.15660758521583
H          -3.41019065044151    3.68786146757360    8.68854428770936
H          -6.15136483890615    4.66052368593208    7.82460229526034
H          -4.68937572216042    5.46223492069442    7.23157664302231
H          -5.42254976639829    5.11357453312776   10.03630841787514
H          -4.08780492419188    5.88224369839148    9.47818913589681
H          -5.91937296067906    2.04925877542807    8.19287259310676
H          -5.59584424932315    2.86733687077992    9.73737947633563
H          -3.72943446886456    0.97172154200538    8.53462165214130
H          -4.71943349881140    0.66621922586993    9.80257959140113
H          -1.37815232402442    3.00313523487429    8.12155864788911
H           0.52414986342645    3.08205303061821    6.46193988137156
H           0.66795972296054    1.26928196973810    4.68623994247431
H          -1.45914856024043    1.15846561585696    3.45400578147329
H          -3.90685917825533    1.33718333805188    2.59092074114996
H          -6.30674897263743    1.68244214281256    2.26922443316703
H          -0.09355777930356    0.31539991616974    7.61309124658677
H           2.38548047708726    2.12141621820548    7.44869698161479
H           0.92626168450136   -0.92503838377285    9.00621181591104
H           5.93692573476976   -0.50824981610906    9.81334064370954
H           3.02807578418563   -5.40740374242276   12.24642818474404
H           5.55247450921832   -5.36916540207659   12.89711404146504
H           0.89716082084594   -4.43210590079851   11.15221579242410
H          -0.03476036983333   -2.50290461090550    8.95884645397062
H          -1.39627008461302   -4.71882009841532   10.56308652464762
H          -4.06603940816707   -0.53768634855747    6.65599834368164
H          -6.63405162481243   -4.27212553775801    8.73736815088009
H          -8.66481211007572   -3.43685179896320    7.72357420751784
H          -9.85483769087526   -1.70749334117216    6.43340601059378
H          -8.61605699616829    0.20866969874837    5.49446339497292
H          -6.17265134322344    0.33710864078461    5.72103666671764
