114
 SCF done       -206.536779718217          0.000322883034
C          -6.15704722788782    3.27093369709511    2.39034906095776
C          -6.21111799760352    4.47003464601304    3.05936543359447
C          -7.38032929587397    4.99299838426356    3.64151444387265
N          -8.30491341893321    5.44967713166638    4.14683225988099
C          -5.10823560200504    5.34198075826220    3.12685037024628
N          -4.22498193776028    6.07648430409702    3.14124606605965
C          -7.31053565065703    2.47198683218032    1.99400635134895
C          -6.92635445657293    1.64224482513515    0.89974424495454
C          -7.81809971335534    0.81199034390970    0.28577462730263
C          -9.15100527227907    0.76232121076414    0.75557095282364
C          -9.53490733600909    1.57664868793203    1.85969565538592
C          -8.59237041647823    2.43686213451441    2.46976721887775
C         -10.86444960513579    1.51088702600495    2.32241529658446
C         -11.77485577124202    0.68363082657964    1.72283486060287
C         -11.39697414936684   -0.11614518557614    0.63446178981684
C         -10.11327256053061   -0.07711944810005    0.16111503880461
C          -5.49251244256578    1.84628420088534    0.61434719851230
O          -4.83007527581773    1.35996257660224   -0.27527913447359
C          -5.00698635772359    2.74378583466998    1.69506366035255
C          -3.66829192560998    2.87601628364413    1.92965909733150
C          -3.02857052486780    3.26583804576767    3.12500770239519
S          -3.80736346020733    3.13381549674035    4.68740444918666
C          -2.39139217797564    3.58897629218005    5.48835675973884
C          -1.35403887852477    3.87581589157590    4.63483958629376
N          -0.17370961415179    4.46939399287478    5.15015275160112
O           0.00101814045470    4.39592866380970    6.35686933418921
O           0.57209239876550    5.04374672789347    4.38243499363805
C          -1.68911254560791    3.66011130174019    3.25736600978622
N          -0.90417905583185    3.85924584640920    2.17160943142513
C           0.47574156842711    3.74382002911598    2.07066795166767
C           1.19994380889241    2.92928097993563    2.90149753849008
C           2.60100118155935    2.87888450426846    2.75502684182824
C           3.55424118028073    2.19852334806265    3.50006050695251
C           3.17348330725782    1.33834273014947    4.66550596902825
C           4.27260062223935    0.41414710705546    5.21629379471716
N           4.78555636708611   -0.57787311938286    4.28737063741312
C           2.59033376263455    2.22330932521997    5.80172608672265
N           1.24969204516987    1.77259336223098    6.14060841710453
C           4.84329649867978    2.55544216130119    2.94354348177225
C           6.10859145748466    2.23989934052647    3.27898249123820
C           7.28108146947067    2.73162016088288    2.50494656197245
C           6.94712047557549    3.64253148131589    1.36097153999290
C           5.68265230245174    3.97078479714753    1.04848793202277
C           4.60058818109306    3.45989475130630    1.80270344432582
C           3.24009075951809    3.66561300480252    1.71526473735266
C           2.45050355233000    4.46708504089572    0.85739013693386
C           1.10700924392945    4.49605824507201    1.03107922501619
C           8.11572618083527    1.60560534186388    1.95079418738871
C           7.94706089951621    0.30180228989656    2.15485834660237
C           8.75003315956669   -0.66180346447015    1.41736955669038
S           9.64118276440429   -1.92284035697902    2.21383807391844
C          10.36158476392846   -2.41839306812796    0.75777834367588
C           9.93447874989651   -1.67074268241004   -0.31021761937018
N          10.39143571207023   -1.90281086766854   -1.63416178395310
O          11.12568056689546   -2.85147831842496   -1.81377307250524
O          10.01892997986637   -1.13510952699606   -2.50109199932767
C           8.98840898060223   -0.66261638715290    0.05887293159984
N           8.33921121931446    0.16647998922502   -0.83635891117087
C           7.06537908952589    0.54403771032897   -0.68782323082109
C           6.48003049590272    1.50087784175798   -1.47000603902911
C           5.10699070124768    1.94322473032701   -1.47285619073611
C           4.09034406147491    1.50460414356186   -0.65969300303610
C           2.73739829295332    1.86823827304409   -0.79801893886557
N           1.61281582722697    2.09018541262832   -0.87403587283916
C           4.26652932520102    0.61768652388932    0.41340232503626
N           4.36158590973813   -0.08608410186841    1.31792612565656
C           4.98632134329480    2.95996904170568   -2.51060991327989
C           6.25838222313235    3.14299826323299   -3.12974317319363
C           7.22970242776712    2.23504408519598   -2.50030184095611
O           8.41699381486088    2.10935785375189   -2.75304669878598
C           6.44475160520401    4.04515412299025   -4.13618900656648
C           5.34913775351934    4.82153806553552   -4.57825566863965
C           4.07858960562183    4.65371010044141   -3.95595927475220
C           3.91554402736334    3.71236269345097   -2.91340896444960
C           2.99535269072312    5.43690501119999   -4.40320825444387
C           3.15558312024879    6.33927289990054   -5.41948506629043
C           4.40615944855166    6.50157406210282   -6.03327948520730
C           5.47985113228347    5.75958873973627   -5.62050732190915
H          -7.51314988026011    0.19865345375205   -0.54912300267185
H          -8.90454504684910    3.04048683078603    3.30795813509277
H         -11.15126408287417    2.13157954225926    3.15865894685004
H         -12.79165461673575    0.64183403393169    2.08385919288734
H         -12.12764099049791   -0.76351702147883    0.17288899553739
H          -9.81688870658294   -0.69114631815764   -0.67684132842858
H          -3.02218326476919    2.52805708645242    1.12814920873253
H          -2.36465709317104    3.68632786618397    6.55643117087801
H          -1.39253698425475    4.02872176115993    1.30212916355284
H           0.72056011801572    2.33491034342244    3.66532844242343
H           2.34821100100541    0.69929267932668    4.32372246885440
H           3.86999852208108   -0.12047539562426    6.08229039916515
H           5.10831872867695    1.02042345750575    5.57992413686179
H           4.91354515962564   -0.15908642621944    3.36955928995125
H           4.09651956993849   -1.31184004801101    4.15646611161750
H           2.51317443124894    3.25761948178373    5.46067162297130
H           3.28218040946972    2.21166482170552    6.65836958857248
H           1.29170507685223    0.88512811211415    6.63230608325462
H           0.80690837600598    2.44849424439756    6.75688061389621
H           6.34722000166100    1.61545253208878    4.12428729541302
H           7.92786210825673    3.29125363082128    3.20261221630217
H           7.78209641284288    4.01935504835853    0.78978695384571
H           5.47456216015488    4.63361247361599    0.21978249596957
H           2.92451156551899    5.04957330748640    0.08081258944520
H           0.48167615978849    5.10739319739803    0.39766701688707
H           8.89013298720011    1.93569571568064    1.26906819944659
H           7.22926888598165   -0.09319104240414    2.85949862025442
H          11.06407535535199   -3.22764293804623    0.72408276620201
H           8.83779858880509    0.50455906748583   -1.66833910968495
H           6.50515343774077    0.04109720732345    0.08871552569515
H           7.41602947847959    4.16578617012494   -4.59254797251496
H           2.94263484632296    3.60450313651412   -2.45964976378228
H           2.03356257553502    5.30625655195632   -3.92906882145460
H           2.31873755465759    6.93235346617444   -5.75671401282384
H           4.51494165435225    7.21665872455697   -6.83490288409540
H           6.44535397535554    5.88026224478228   -6.08970172081953
