164
 SCF done       -272.587289904336          0.000625381031
C          -6.58985364963708   13.62494319044404   -5.25527615071525
C          -7.86252034709046   14.04795394225799   -4.97946180339743
C          -8.17791324699844   15.27810200415363   -4.35811417551694
N          -8.59247542526044   16.22789281086283   -3.86041657505244
C          -9.11549389778971   13.49223693677942   -5.30186672947623
N         -10.21614652162462   13.26265931938254   -5.54045307391606
C          -5.42943363534947   14.50008812972168   -5.09849209177259
C          -4.28539913250178   13.88585431730264   -5.68329648172042
C          -3.07332471790390   14.51224252494915   -5.75181071446734
C          -2.94694122804623   15.82410428604313   -5.24608031107819
C          -4.07932181794308   16.44242039657522   -4.64579016231783
C          -5.31028598860449   15.75632421662811   -4.56034108264094
C          -3.96773440482185   17.76216306440271   -4.16369694278906
C          -2.78857041517227   18.44529026301372   -4.28977991683315
C          -1.66740370451258   17.83417169232130   -4.87284856620206
C          -1.74182559045578   16.54790821939260   -5.33329003652876
C          -4.65430949264713   12.55404088465984   -6.16333640075712
O          -3.94860360405834   11.72898690999128   -6.69925074749084
C          -6.10775034375855   12.37024905280350   -5.82653251611399
C          -6.56385860767220   11.10759678600474   -5.96148286937561
C          -7.81179158944747   10.44427437059963   -5.61725184792780
C          -7.72598253196179    9.37003414283735   -4.71961163171905
C          -8.89396725612206    8.75962305351113   -4.32299898406979
C         -10.14144335853189    9.21068353524705   -4.78143895800835
C         -10.21071044048852   10.17318736169695   -5.76042913171091
C          -9.03300528589501   10.77083064959926   -6.19432651983047
C         -11.19863050091009    8.52889984698611   -3.97081312268640
C         -10.40621831780449    7.45875472273239   -3.22428656827407
O         -10.83800158725096    6.58551095887923   -2.51136641262318
N          -9.07552413068657    7.70265168536958   -3.44517860205572
C          -8.02098363189279    6.90094503257532   -2.87437734607015
C          -7.42631309500594    5.94026964816485   -3.89970789931909
C         -11.75803852658531    9.52567884107056   -2.91390691963274
C         -12.55654594237227   10.61070196409207   -3.64755892648476
O         -13.57067431883468   10.46237508245794   -4.28141720931670
N         -11.88321099229417   11.78666620169586   -3.48155221381770
C         -10.72371101333206   11.62778825362323   -2.74176586713896
C          -9.72739628926185   12.54614138551080   -2.48626406844513
C          -8.56869038265697   12.09620513307410   -1.85328007513323
C          -8.51704667425011   10.80021952880037   -1.34329453435360
C          -9.56312451984429    9.90851800111287   -1.52752479159056
C         -10.63776041900834   10.30492576892300   -2.29459644241636
C          -7.36935750195061   12.94756046677641   -1.81383539644973
C          -7.39738951724008   14.25278789077483   -1.41408786655116
C          -6.20041284518220   15.01234443278656   -1.40021262446222
C          -5.94395335514688   16.31033670625222   -0.99594068691660
C          -6.95323835506876   17.27502845202572   -0.46465312678929
C          -6.77404115318389   17.44840685144165    1.05677391323143
N          -7.95164193774130   18.06290703062408    1.64304365506079
C          -6.92961090609457   18.62808714507312   -1.19367129755108
N          -6.84372508312473   18.43516614762918   -2.63489913971256
C          -4.52108076979342   16.52167561069825   -1.14397720908602
C          -3.72099354770845   17.55828719380458   -0.83404055304839
C          -2.25371583689065   17.52813482378340   -1.08231987597054
C          -1.74245645109896   16.24748722069571   -1.65954035463351
C          -2.54753870890457   15.20842791542458   -1.94543746772604
C          -3.93698998953712   15.29257070109159   -1.70095877864463
C          -4.96405850118862   14.38181199148461   -1.84386370356332
C          -4.98165163247349   13.04468156153073   -2.29886605986212
C          -6.14947168931507   12.35375125101784   -2.27379917571785
C          -1.51336621076222   17.86146028150210    0.19045735571415
C          -0.65152320131405   18.86974492900938    0.29036428715166
C           0.10449049633204   19.26724339508317    1.46993820774276
C           1.15994873407225   20.16974769427356    1.29513167706838
C           1.87074387328492   20.58084800101961    2.40064049649380
C           1.54679529410001   20.12715513329243    3.68384995928429
C           0.51008461301473   19.23849449537259    3.86078000123988
C          -0.20106323918889   18.80783603143547    2.75135519779637
C           2.44933805693290   20.80347781500723    4.66519286626456
C           3.35235251011763   21.64629813816822    3.75880125630309
O           4.24889104583221   22.38056506182183    4.10913011936386
N           2.94049503655777   21.46409389674546    2.47308528467385
C           3.55540616706925   22.12432486594770    1.34770394063141
C           4.47762007629444   21.18270522289033    0.57830802832454
C           1.69452029047796   21.75407265216453    5.61986471102039
C           1.03897824959643   22.87616198049848    4.80144343122742
O           0.22719679475794   22.75772344779930    3.91621315603049
N           1.56349876794783   24.05324128979350    5.24454758390665
C           2.50114034076390   23.87158616660164    6.24886983160547
C           3.24017935642150   24.82474191895686    6.90846901745008
C           4.14133697731966   24.39651806247458    7.89507697403052
C           4.25200230532933   23.01992778929078    8.16946858892778
C           3.49363089548503   22.07587750069492    7.50150374811242
C           2.61057317312294   22.50463105008791    6.53228248297221
C           4.99827255499678   25.26131938019117    8.65988560628633
C           5.15409658212121   26.61004332074362    8.76545640468501
C           6.16371649823210   27.20896312058693    9.64375533286236
C           6.98036469754725   26.56625751295638   10.53627811252714
C           7.92638559335322   27.22304539192876   11.35444883971175
N           8.71573409640238   27.68023974498914   12.05126579706679
C           7.02076489293737   25.18397559526601   10.82279865632670
N           7.13685015268213   24.08788161814678   11.14809569297137
C           6.14194590187991   28.65187979961199    9.44220334772029
C           5.10538120529609   28.96109661229816    8.52017203541237
C           4.43957558107016   27.72413594999851    8.08401815891834
O           3.49029366436215   27.67776428625442    7.32865913278336
C           4.82718012577322   30.24328730822015    8.14164111365380
C           5.59531166816158   31.30020173709450    8.67651981037591
C           6.64282643649229   31.00071212404411    9.59491316929769
C           6.90376024169790   29.66310547226174    9.96889490407200
C           7.40656057452211   32.06246235200886   10.12234763278272
C           7.14785972304488   33.35689082111944    9.76282899926212
C           6.11518558023428   33.65028432376252    8.85920924524529
C           5.35585641809147   32.64386212856947    8.32716243644591
H          -2.22798599581183   14.01684216752741   -6.20654451671132
H          -6.12457141909488   16.26638534606471   -4.07562643904990
H          -4.83680362063096   18.20605605407124   -3.69749171697095
H          -2.71422936909317   19.46788094134283   -3.94732336896664
H          -0.74362580929771   18.38794661495213   -4.95746800033185
H          -0.88212066047513   16.07341936441858   -5.78365991380913
H          -5.79307273272386   10.42720853314181   -6.32645815440419
H          -6.76590454059177    9.07010518393938   -4.32871686514726
H         -11.15766422005034   10.47995936355142   -6.17509703454764
H          -9.06404002150525   11.49629567378163   -6.99087879148397
H         -12.03258561017139    8.11260675067846   -4.53782486342351
H          -8.46948043973823    6.33644172029846   -2.05246976871845
H          -7.24905087579464    7.56500133215267   -2.47336533848574
H          -8.19584733916844    5.26502338014542   -4.26546470995489
H          -6.63595632214739    5.35202953295169   -3.44165673856825
H          -7.01350564676073    6.48602126825850   -4.74509313754938
H         -12.38199700279367    8.97323679188178   -2.20818778652703
H         -12.11461239101938   12.63306053179777   -3.97954495439775
H          -9.81113741729289   13.56906071438228   -2.81702778657891
H          -7.64118915069125   10.48846903305400   -0.79365137413893
H          -9.51600313113224    8.91607811579370   -1.10621043553151
H          -8.32111828425118   14.69491447018811   -1.07120217851078
H          -7.94540092420074   16.83977462227515   -0.61667440213139
H          -5.84191320152371   18.00526394457107    1.25260506803355
H          -6.66758616883955   16.45499175569572    1.50233529028628
H          -8.03366602504083   19.03083279989924    1.35256057631734
H          -7.89446780097680   18.04783947602377    2.65483212161213
H          -6.05640128270109   19.21430989164126   -0.88929909689780
H          -7.82948669579703   19.19048616413676   -0.89560269663820
H          -7.57543031967484   17.79337192007122   -2.93420746209414
H          -7.01614472438388   19.31860496226406   -3.10627725722657
H          -4.09604733755874   18.46425184481444   -0.38103345786125
H          -2.03581421956114   18.32983061206591   -1.80484203431866
H          -0.67804756350411   16.20128097469748   -1.83290562965564
H          -2.14397943479375   14.29619750563027   -2.36167721048961
H          -4.06984012038463   12.58768827447768   -2.65675970605957
H          -6.19041890683945   11.33153628662764   -2.62276443175403
H          -1.71955728090056   17.20103433258272    1.01942753087413
H          -0.46207058817890   19.47681870978017   -0.58787926252446
H           1.39616684166206   20.53637063558634    0.30787198559167
H           0.24529305258874   18.88606132370998    4.84666993914428
H          -1.02328277724918   18.12397022471756    2.88897395431889
H           3.04600617207974   20.10478459393735    5.25790745160492
H           4.13124523433978   22.96036099883585    1.75354435501833
H           2.76797125118056   22.51499808107015    0.69661704759335
H           5.27595065784155   20.83180680151045    1.22765966787770
H           4.91993125089565   21.70577729213131   -0.26509667123789
H           3.92785573172775   20.32027365313938    0.20845729514788
H           0.93182816901117   21.18330152469183    6.15708820157842
H           1.33334584091436   24.95067570426946    4.84706322413140
H           3.13384857563186   25.86893324077817    6.67265622654036
H           4.95106812018539   22.69152893983278    8.92437758217271
H           3.60084613546391   21.02705491404021    7.73309582641548
H           5.67042266128286   24.68890319495319    9.28812103200327
H           4.03025402312320   30.44617571973660    7.44156414289030
H           7.70548967081732   29.47517346149084   10.66444668801238
H           8.19916723682320   31.83200424970746   10.81878039655430
H           7.73704375044774   34.16300624056062   10.17351864265863
H           5.92487350948319   34.67770533599812    8.58705681933714
H           4.56003125708648   32.86318398054945    7.63056066522096
