106
 SCF done       -196.462229847399          0.000544492249
C          -1.15869207855952    5.52200340521371   -2.66725088978689
C           0.10767035519104    5.10532562418833   -2.37170195639477
C           1.19623679166314    5.22307340449249   -3.26217511953618
N           2.10677162549247    5.29841574097712   -3.95585428492630
C           0.44610775465128    4.40736873849658   -1.19256609089951
N           0.75082144914958    3.76552415581108   -0.29110022102539
C          -1.62839321168554    5.98789730714824   -3.96476100661340
C          -3.04830602662493    5.84464759268474   -4.01806012948286
C          -3.75769014580305    6.15708360256539   -5.14357129820239
C          -3.07119184924682    6.64006132531769   -6.27932061566194
C          -1.65573268072798    6.80497612115856   -6.22439152787665
C          -0.94587273399492    6.47214700435836   -5.04862788734128
C          -0.98427595582106    7.29347961661111   -7.36375941889038
C          -1.67422989290482    7.59964951067347   -8.50496731477688
C          -3.06674046587594    7.43457277756704   -8.55920152323917
C          -3.75032166350885    6.96577764546744   -7.47042419558355
C          -3.54042509015580    5.34276648933085   -2.72672891817768
O          -4.66418379671408    5.03416409003566   -2.40947056402427
C          -2.33713574416403    5.34281866471285   -1.83368572464744
C          -2.47677816372545    5.31923712177292   -0.49161032389335
C          -1.45649424427803    5.63856371435571    0.46106042254439
N          -0.54583014388922    6.56030621442444    0.21627653838438
C           0.25659165880800    6.58185455870193    1.30802081868213
C          -0.17094112916016    5.59490007954177    2.30069349333242
C           0.73987733128268    5.60013792473461    3.45248035701047
O           0.70996363874316    4.90507423392924    4.44721972135591
C           1.71282058908738    6.65190370834400    3.09322317640387
C           1.37694251696494    7.22475543696975    1.77204816346506
N           2.26786192394440    8.18740133230004    1.42654214632038
C           3.11300591234106    8.24469572219495    2.42480505373414
C           2.82592645574951    7.31042887967895    3.50010020115447
C          -1.29418156957360    4.99042403930955    1.78049020680877
C          -2.10628655871153    3.94148211519108    2.27911323417296
C          -1.78259859106525    3.25382124277235    3.40477367695060
C          -2.51911854243337    2.17513182472043    3.94724635203301
N          -1.98723391316573    1.41945241678122    4.96918136929873
C          -2.86533855548819    0.43465620061805    5.28357782245173
C          -3.06452694892235   -0.67458519904985    6.08654841429905
C          -4.34054910213475   -1.17399770990654    5.75412190328312
N          -4.89928297825544   -0.37450917980394    4.77392412544734
C          -4.01385484924168    0.59868979594988    4.45038945688826
C          -3.79087734062120    1.67928380863685    3.61040691571982
C          -5.02695748965874   -2.29390778305073    6.25406685670057
C          -4.49249163524209   -3.24982282700124    7.07107445528100
C          -5.24849989757520   -4.35987695726416    7.49452114872921
N          -6.55831755737654   -4.46385331645055    7.25431212114191
C          -6.93781838108562   -5.63690163452898    7.77275440470346
C          -5.80053014722910   -6.36208474881539    8.36474822660816
C          -6.25072973405968   -7.63552343367026    8.96410486701048
O          -5.59645427993772   -8.45289952083945    9.57191119927560
C          -7.69050393309483   -7.63611996621283    8.66121964473036
C          -8.07090984966937   -6.40623826575569    7.94059319944714
N          -9.39424506906283   -6.39971827744448    7.66719224306789
C          -9.85157761278972   -7.52898942470133    8.16532173207115
C          -8.84449825884924   -8.34505356973817    8.79811347868909
C          -4.70782828787309   -5.55249246502743    8.19442974201747
C          -3.33933196134585   -5.76639281032629    8.51992483219303
C          -2.79827715084196   -6.99259957557212    8.72951560583367
C          -1.41308298290431   -7.14155791622166    8.99126621538533
C          -0.73278577120653   -8.32224098408557    8.96186383270516
C           0.67068375717788   -8.52837490575561    9.27203915293601
C           1.61126963038506   -7.55995016097887    9.51460690369011
C           2.96546653293516   -7.82655419358509    9.80663115931311
N           4.07831553603213   -7.96949707216593   10.05089173995632
C           1.38557964896169   -6.16869605178765    9.47673945285022
N           1.29024850633048   -5.02406716097923    9.44672625911871
C           0.92548529638072   -9.96426987816348    9.23967729192715
C          -0.26780968353989  -10.63131943078896    8.84082361879817
C          -1.33189833948348   -9.63819480311122    8.60445323949651
O          -2.43858485189066   -9.85317969842391    8.16407400740870
C          -0.32620683835797  -11.98764122521521    8.70381965017997
C           0.82875691520138  -12.75723068439524    8.96801520559390
C           2.02601556027641  -12.09909492590609    9.37231418293039
C           2.05605620896785  -10.69216632582428    9.50506736182187
C           3.17387645959878  -12.87650476748575    9.62983007390683
C           3.14274275099406  -14.23747373732802    9.49340486838060
C           1.96306786403805  -14.88422982062624    9.09532091981200
C           0.83066139345095  -14.15988396668165    8.83893144155458
H          -4.83046812147533    6.03527743128323   -5.16751155511844
H           0.12309643409488    6.61559860827027   -5.02768536793900
H           0.08771334864001    7.41580734261272   -7.31796091339687
H          -1.15071026758852    7.97035651979759   -9.37328138006689
H          -3.59468242652329    7.68096300152488   -9.46810292768892
H          -4.82209432591572    6.83693503192039   -7.50661383765048
H          -3.46455328485213    5.08777588028111   -0.10777432222457
H           3.93409297675844    8.94001593172732    2.40280856078809
H           3.39853079497464    7.20250449768523    4.39999423070568
H          -2.98588051155538    3.67477625667573    1.71113581432395
H          -0.87333330090670    3.52215798629677    3.92788768963687
H          -1.07744190630577    1.57682495004695    5.37000763906260
H          -2.40706143886481   -1.08176222221847    6.82701472850433
H          -5.79909358205844   -0.53934927965001    4.35548640860760
H          -4.44287776984766    2.08083018242799    2.86200339167632
H          -6.05327274579308   -2.43841911246493    5.94248656439074
H          -3.45936905287787   -3.18703401355913    7.37647975282084
H         -10.89631506228399   -7.77329099017269    8.07981155880482
H          -9.01066137829297   -9.29683917107498    9.26243459958784
H          -2.69210563008342   -4.89718865213576    8.53715378086787
H          -3.41143012855343   -7.88008196278581    8.66567845625000
H          -0.87085721497525   -6.23423748722638    9.22900913899892
H          -1.24401505147443  -12.46695440301095    8.39718715336436
H           2.97769798789198  -10.22541087972756    9.81452601900259
H           4.08000052157231  -12.37399713159183    9.93525348362858
H           4.02755302170528  -14.82386821546585    9.69125892285356
H           1.95637083375250  -15.95912654425639    8.99264267169492
H          -0.08072310409068  -14.65182236871137    8.53192484148672
