102
 SCF done       -194.529801817013          0.000440496234
C          -0.85637462873888   -2.89460050253286   -0.17983191419132
C          -0.06515454489012   -3.76365372437956    0.51757922624684
C           0.37577469595787   -4.99948488944444   -0.00431001169306
N           0.76385075372788   -6.00879208371463   -0.38630666951128
C           0.57789150019483   -3.44725252236924    1.73906836659045
N           1.31875637771370   -3.20067812195767    2.58341233100592
C          -1.14031304037730   -2.97525290458762   -1.61200343684518
C          -1.48836883720798   -1.67134979978061   -2.07872814277112
C          -1.64183264092226   -1.40066461839907   -3.41024305439418
C          -1.49017326322964   -2.44584806763949   -4.34611290391368
C          -1.25055036456953   -3.77153887871851   -3.87712050129137
C          -1.06808503825801   -4.01794733647278   -2.49520694965805
C          -1.16093284748640   -4.81506513708909   -4.81937413246290
C          -1.26597260389092   -4.56029710809482   -6.16025388001228
C          -1.46108993089449   -3.25078811582227   -6.62345617786623
C          -1.57903281290064   -2.21662838928701   -5.73442687401808
C          -1.65286991503417   -0.77497075404317   -0.93378547883459
O          -2.04741016979339    0.36996622905026   -0.91766364289234
C          -1.33028788522955   -1.60298851462992    0.27496103832020
C          -1.65350223458871   -1.10954468018174    1.49887022000846
C          -1.71637286856215   -1.79557022598891    2.73710100395087
N          -1.42014724725247   -3.08147644037278    2.86449824269226
C          -1.63989087170677   -3.38655536011173    4.16142556847839
C          -2.14950142160222   -2.22164418360443    4.90000273556462
C          -2.40975082838362   -2.57760505967590    6.30578314699669
O          -2.85681703808005   -1.88758773548590    7.19068516959964
C          -2.00261767894561   -3.99901459045454    6.35615593333972
C          -1.55445937805304   -4.45056195364495    5.01865359322953
N          -1.23620106912318   -5.76975276759839    5.04008810029457
C          -1.43783224321108   -6.14789750559451    6.27797543976091
C          -1.91972203774685   -5.09173762350760    7.15222096467173
C          -2.21442038413196   -1.19655204728342    3.99975657878523
C          -2.76065156852134    0.12143800427122    4.11030480598284
C          -3.66894601937594    0.44802476581968    5.03798298495342
C          -4.44881028994617    1.69703059015462    4.94493342292416
S          -5.27389485260845    2.26602123969549    6.51125881755531
C          -6.56741625147855    1.80682374292857    5.44452390977008
C          -5.83202031354427    1.43883866708472    4.37526028193476
C          -6.16156643038868    0.83004389997530    3.09937211740592
O          -7.25972022369263    0.48763329149528    2.73765827156706
O          -5.04524239380657    0.70234881763261    2.33939031124508
C          -5.15419180813492   -0.08146885972525    1.16870779260112
C          -4.83626164729924   -1.50492854080631    1.46235983224762
N          -4.83745491596988   -1.94457725932150    2.69412882677031
C          -4.43132302448746   -3.24362093277371    2.64002296751760
C          -4.08871374447762   -3.61184080715707    1.26510041550735
C          -3.56204046119791   -4.98684178555259    1.20029986060386
O          -3.07266038521294   -5.55156887090974    0.25077813199908
C          -3.76146235405145   -5.45732624495658    2.58464396554527
C          -4.27482537606591   -4.34880579313677    3.43108746971929
N          -4.50313778112027   -4.78917945591654    4.69732557286300
C          -4.19594986596000   -6.06051146391388    4.67914415733582
C          -3.72740301050285   -6.54380206748290    3.39118540145914
C          -4.41918602994469   -2.53528364063920    0.47888607479041
C          -4.38495807409304   -2.52471708193494   -0.94035228147976
C          -4.80648963805240   -1.53837373717624   -1.76867856215872
C          -4.71437241009902   -1.69238378105026   -3.17444557934893
C          -5.00113247995818   -0.71120225541035   -4.07386633417601
C          -4.86875163689083   -0.79461628941732   -5.51773875993075
C          -4.63550004121943   -1.92986645363068   -6.24864922227560
C          -4.47642499431167   -1.94736230772960   -7.65037638437313
N          -4.31656358869689   -2.02566338692238   -8.78434310503819
C          -4.52918519816819   -3.23650821998971   -5.72596208395088
N          -4.44609674628880   -4.33129566406539   -5.38966041495214
C          -5.05659198715841    0.54602952511409   -6.05706858415638
C          -5.38147948825661    1.42870025344258   -4.98601123826020
C          -5.39806778070314    0.68227536678501   -3.71841183819151
O          -5.67579007921110    1.11440008154547   -2.62092805983930
C          -5.62412198889605    2.75626276371080   -5.19321442956741
C          -5.54711384947267    3.27440066627852   -6.50494023637234
C          -5.21792890030069    2.39988051590560   -7.58148268252493
C          -4.97490171415471    1.02907399784206   -7.33708653527598
C          -5.14245224021080    2.92824811008887   -8.88639738766503
C          -5.38107207933809    4.25550656749199   -9.11868696220977
C          -5.70530884155558    5.11515582508821   -8.05827487117292
C          -5.78663411160395    4.63512617591193   -6.77912062794118
H          -1.86357369338389   -0.39664453176074   -3.74253276363667
H          -0.87587432857280   -5.02657882424533   -2.16596596793909
H          -0.99986051595750   -5.82029233192712   -4.46094908818899
H          -1.19542836724453   -5.36672896030802   -6.87357535426047
H          -1.53095347024722   -3.06615154911161   -7.68502141369052
H          -1.73030605377752   -1.20385626848279   -6.08256528089669
H          -1.98961049364057   -0.07873565120821    1.50033782944426
H          -1.25139970454967   -7.16746876494054    6.56907514057638
H          -2.15141136809296   -5.20231996715844    8.19276484054725
H          -2.50188202659714    0.83611234424966    3.34142920193617
H          -3.96131409001642   -0.25869561902169    5.80101652838788
H          -3.91039034208590    2.51463750842818    4.46660686617284
H          -7.62039163090287    1.84446870174124    5.64413983715609
H          -4.45179743672800    0.33656218296515    0.44019934722638
H          -6.18040178384002   -0.00795694613277    0.77364006304815
H          -4.30038603431796   -6.65450584581264    5.57069275170750
H          -3.42421522665880   -7.54864145631701    3.17690838761713
H          -4.00211817260611   -3.44163016786982   -1.37697670701433
H          -5.20731894848354   -0.61198139494252   -1.39266339405526
H          -4.36219305731206   -2.65197558904213   -3.53160172063916
H          -5.87075946106964    3.40295019562441   -4.36435539890672
H          -4.72762515609768    0.39379809486882   -8.17285018829539
H          -4.89359277003348    2.26264967274122   -9.69983795054891
H          -5.32139088277124    4.65057639658506  -10.12158294815321
H          -5.89031154807282    6.15946484606809   -8.26000313534099
H          -6.03590632317376    5.29198136905677   -5.95879258317557
