102
 SCF done       -196.874178156294          0.000481908286
C          -0.16142798390049    8.37667944058104    3.04742083631789
C          -1.33577974027347    9.04947143754745    3.23244724619664
C          -1.41062974592136   10.42307766345164    3.55080611822942
N          -1.52228843067711   11.53660913911193    3.80248314166861
C          -2.60624672696457    8.43723715563091    3.23035093303671
N          -3.65947816240609    7.98733699727069    3.30909129802695
C           1.17781930804709    8.89311205523244    3.29399105113379
C           2.08556233379624    7.79551603468259    3.39927283352030
C           3.40989544266825    7.98395288321720    3.67729724559806
C           3.89652568591008    9.29732936260018    3.85790592473197
C           2.99916779508710   10.39885952408823    3.73513547548049
C           1.63324390280084   10.17572941148479    3.45019514267570
C           3.49974395847885   11.70513588257882    3.91112271045604
C           4.82099803455830   11.91537875458066    4.19800259149057
C           5.70283204780988   10.83066547851246    4.32075196093232
C           5.25069310537975    9.54977071917573    4.15447472122780
C           1.36660777046472    6.53714826006109    3.15755164093535
O           1.77685211741406    5.40382651538520    3.20208725630394
C          -0.01967831712406    6.95762250514576    2.76673274504421
C          -0.84512388173089    6.08461237641949    2.15902111992198
C          -2.07612688822100    6.37476149749433    1.48156777281993
N          -2.18548997973942    7.33361324984413    0.58784679346712
C          -3.44236572714524    7.23877258188068    0.08778049402066
C          -4.17683923007093    6.13711774562262    0.72440634756928
C          -5.54509764895666    6.04264557924757    0.19262030755229
O          -6.41953450992994    5.26105609182527    0.50004422903418
C          -5.57166082434695    7.12279434126484   -0.80829331641237
C          -4.26536182083887    7.83213586241081   -0.83168451619266
N          -4.28490007752533    8.82889769060741   -1.74987525200720
C          -5.47522449598934    8.77812954301427   -2.28862829672562
C          -6.33283288097967    7.73648953058444   -1.74546270902093
C          -3.31695531006944    5.57430788083302    1.63023058797124
C          -3.56578521100585    4.51503164684932    2.53755348454317
C          -2.80540614781314    4.20181245031412    3.61404272023067
C          -3.10605500648489    3.08953308586741    4.44302677522062
C          -2.59060953105528    2.71937156325023    5.69328366570954
N          -1.63209352793873    3.51179169432389    6.38868465064803
O          -1.41331499013807    4.63731207955310    5.97838725438761
O          -1.08184632271583    3.02469714674985    7.35298810596629
C          -3.12623437232959    1.51414502588019    6.20883512302863
C          -2.77784973845778    0.90929197512638    7.51386643539724
C          -4.03399636003489    0.94080089495376    5.31981195090717
S          -4.21842563901807    1.90610164822216    3.87853353248851
C          -4.81725412571880   -0.23326367139531    5.46078059558715
N          -5.02254200847069   -0.85505140565830    6.61215175962630
C          -5.91457920580694   -1.82855598386414    6.35830905845942
C          -6.31057475897577   -1.83165351279731    4.93296701481955
C          -7.27314521091457   -2.92229318437761    4.66192569182950
O          -7.78306345821806   -3.23063140872716    3.61200380656467
C          -7.43275393819646   -3.53463206878825    5.99416362583116
C          -6.58767206855228   -2.83981378176455    6.99297390687016
N          -6.71855746177780   -3.41590736794456    8.21283225928789
C          -7.56497094805016   -4.40018239689167    8.03766777990448
C          -8.04595295566734   -4.53490990103005    6.67624147388683
C          -5.59599416258874   -0.84172603228174    4.34243263262014
C          -5.44885772740983   -0.40360524436342    2.97886936869490
C          -6.40201312498727    0.14882047362415    2.20120993527962
C          -5.99365494491728    0.83276559184109    1.01971972222337
C          -6.71710896134375    1.76989471197701    0.35532410738469
C          -6.21650216781017    2.66019883882560   -0.67573441017067
C          -4.90003818051251    2.98616415543148   -0.88169759080200
C          -4.47551711648213    3.97968316698758   -1.78606253954201
N          -4.07439310305376    4.80245033936486   -2.48017301696840
C          -3.82506177792748    2.51441815788784   -0.10398683831611
N          -2.91206180722528    2.22896018615014    0.53365356052011
C          -7.35785282353653    3.31758734185477   -1.28967431654178
C          -8.52516218271164    2.98601341386274   -0.54256039471430
C          -8.17029018530731    2.05177032847008    0.54156902242628
O          -8.90119617243565    1.59925177302741    1.39244202969259
C          -9.74226604362496    3.52680076665215   -0.84010731704886
C          -9.84912052706775    4.43278200148089   -1.91950198483158
C          -8.68959649090441    4.74735510843886   -2.68590108315734
C          -7.44253237225600    4.17186788640010   -2.35676816263361
C          -8.80984342631782    5.65352544330232   -3.76012114535797
C         -10.01463357654173    6.22863929206862   -4.06009635646984
C         -11.15535067868799    5.91991937402514   -3.30354008955372
C         -11.07427723351144    5.04049937914006   -2.25784569878206
H           4.07785653565088    7.13957155768133    3.76031588653511
H           0.97751807761461   11.02689611123368    3.35386239390046
H           2.81658767195068   12.53648751982605    3.81883225681274
H           5.19447720248018   12.91929266270154    4.33279476219761
H           6.74202695102483   11.01545450288163    4.54763008687868
H           5.92474126833211    8.71106678722457    4.24804269130322
H          -0.51941976120715    5.04822286263432    2.12576025688541
H          -5.74918725161383    9.46991212048717   -3.06644649896343
H          -7.34081896523632    7.53500913844833   -2.05172762693650
H          -4.47855807188799    3.96014698131745    2.35231828406535
H          -1.96337313021686    4.81633279085910    3.89769722934379
H          -1.73714123346714    0.58531952812341    7.50665883961771
H          -3.42994894681389    0.06611152248295    7.71958571295705
H          -2.86260015352292    1.64946306216703    8.30814720159388
H          -7.84684963967532   -5.02698153950374    8.86588347076205
H          -8.73713314307370   -5.27727603695379    6.32973527377612
H          -4.42775636958628   -0.43161580133362    2.60690686439032
H          -7.42955757958844    0.22212628429788    2.52329965591069
H          -4.97342967599290    0.65080245070962    0.70056147704994
H         -10.61292703526215    3.27618133441405   -0.25243495489379
H          -6.58085904294023    4.42519347198878   -2.95513604391533
H          -7.92778822295096    5.88672887266465   -4.33970163968819
H         -10.09583268582060    6.92416080410620   -4.88220845586914
H         -12.09829380264070    6.38211625207151   -3.55447211969229
H         -11.94991434080849    4.79956258618842   -1.67315954404768
