128
 SCF done       -211.746639333376          0.000393564033
C          -2.70375400535516    7.91549913916725   -7.31515706339358
C          -2.00040144688467    8.62606721108251   -6.37867336638211
C          -1.90371324510569   10.03221919770265   -6.37697678000577
N          -1.80810462451264   11.17527994659697   -6.32307966964385
C          -1.21170301096325    8.04897307163834   -5.36154788030144
N          -0.48822611342295    7.65984118430215   -4.55932068965560
C          -3.29620208880701    8.47542332599256   -8.52567516232602
C          -3.49901376104676    7.41925524505215   -9.46137859630969
C          -4.00783065368653    7.65152612412515  -10.70622440139287
C          -4.35485101817713    8.97107709650125  -11.07457991330103
C          -4.17238890234061   10.02829476840636  -10.13734363257977
C          -3.63553829471353    9.75959242849351   -8.85727018680101
C          -4.53120866484644   11.33854721049555  -10.51406865447023
C          -5.04216410080947   11.59506202933152  -11.75699857946991
C          -5.21973769911382   10.55360297102939  -12.67992384715576
C          -4.88311784607727    9.27002769225262  -12.34591695820002
C          -3.10101091139639    6.13874496831693   -8.84541718190549
O          -3.08741139697085    5.04145335827537   -9.35577270495117
C          -2.77453535322078    6.47056069558356   -7.43094786221730
C          -2.69075287207548    5.48639560528680   -6.50318801652348
C          -2.74241626815847    5.62262107786729   -5.07470666600048
C          -2.05069253386743    4.69962910224962   -4.25760685452425
O          -1.36682946785871    3.72355948006148   -4.90343209717323
C          -0.58001878498235    2.83341270698262   -4.14869536500680
C          -2.05811379624235    4.88574428217725   -2.88632917030547
C          -2.75192009140313    5.93344934862169   -2.28176822890884
C          -3.54314918409224    6.77277776422315   -3.08344403743060
C          -3.50405389057940    6.61387334615700   -4.45986194592020
O          -4.37376868287740    7.76368649711886   -2.63907563583766
C          -5.01202993174850    7.63645775190270   -1.38715490125887
C          -2.52082820624466    6.16298747810806   -0.84927622177519
C          -2.09992163174318    7.39629430476529   -0.43300532092603
C          -1.77508361524467    7.61340641993471    0.92722428727071
C          -1.30808170665735    8.73040602711406    1.59776419312511
C          -1.03755810124197   10.10231554864841    1.07464821761383
C           0.17276204158553   10.11589150687156    0.12579410436646
N           1.37678204161414    9.79597161432080    0.87835865052018
C          -2.26852665307905   10.71723428558424    0.38832049812886
N          -2.04820944713529   12.13550723829334    0.16602088274499
C          -1.09871313168732    8.33074374833678    2.97114968015446
C          -0.58995293255343    9.00316630958361    4.01903785869938
C          -0.40555281207820    8.35956271395007    5.34551879078334
C          -0.90624101783434    6.94793972894224    5.43022295418602
C          -1.40898181942565    6.28973359668799    4.36982958626451
C          -1.50164681189922    6.92538452604821    3.10917238866555
C          -1.90347350589783    6.49704918150489    1.85976361532926
C          -2.35693023609457    5.24137920313335    1.39361973968336
C          -2.64623653459269    5.08116788785225    0.07705586268204
C          -0.99051682925944    9.16495669792283    6.47826549672000
C          -1.91792687466706   10.10782709972762    6.32644861448916
C          -2.47399530386361   10.90444160661141    7.40723226630428
C          -3.06467163761045   12.15896802714627    7.10115928622642
O          -3.10849473117786   12.49846832362703    5.78173883691052
C          -3.69373774563795   13.72566977519584    5.42145123002947
C          -3.51647560545086   12.95590510142760    8.12632478670954
C          -3.39824955114158   12.57868565673147    9.48004764042705
C          -2.96472070438813   11.26990738788842    9.76911668990538
C          -2.48006301084395   10.48233227858853    8.72314232864305
O          -3.06539174410527   10.61825055525467   10.94695929323950
C          -3.84024457749224   11.11007065683852   12.00744476987960
C          -3.66943749610260   13.60759518067019   10.44440645984457
C          -2.88911436874291   13.89973095101636   11.52274669093208
C          -3.13171129300249   14.93483183731093   12.50781793561389
C          -4.34277205091592   15.51874660791892   12.77700575999825
C          -4.54132336277704   16.50711165240845   13.76163192290532
N          -4.75849960137146   17.31943848752136   14.54355610254237
C          -5.54698829466118   15.16873402701445   12.13308187766680
N          -6.56182123700374   14.90357917411294   11.66457831756539
C          -1.88637902121821   15.16490968728949   13.22734839414246
C          -0.91827234440882   14.22675991500464   12.76742687475033
C          -1.51167179933526   13.37438491184271   11.71888931932583
O          -0.95981451848791   12.48515819303321   11.10726126505479
C           0.35014872441145   14.19678842632915   13.26909653551083
C           0.71658256414250   15.12282506385380   14.27202349311818
C          -0.24357285568550   16.06982922266943   14.73131448890499
C          -1.55115247808295   16.07611982312420   14.19342044996410
C           0.13632258879695   16.99360890436777   15.72606591877379
C           1.40266645498611   16.98329862910364   16.24445756965859
C           2.34672328314449   16.04943331715340   15.79257415562360
C           2.01056337068304   15.13841461749993   14.82807880954943
H          -4.14563424895837    6.83801233458592  -11.40300361633768
H          -3.51560079659237   10.57714361358622   -8.16359703021663
H          -4.38931410982017   12.13744093123248   -9.80097622740500
H          -5.31198616648087   12.60257958823771  -12.03658566264064
H          -5.62470382761272   10.77355794666390  -13.65651715943273
H          -5.01768404572535    8.46383000362614  -13.05235080922854
H          -2.61960595442937    4.47457620930434   -6.88728420942490
H          -0.12662174701093    2.15856399542413   -4.87289790400103
H          -1.18772880976748    2.25445176488992   -3.44583466911605
H           0.20736128628506    3.36210300361000   -3.60331170387674
H          -1.47166121439967    4.24635955290693   -2.24517724472253
H          -4.11207285956016    7.27445835452046   -5.05915535140494
H          -5.97585514631605    8.13751088548711   -1.49133653555903
H          -4.43896673884798    8.12044855700096   -0.59089084735867
H          -5.17482996170511    6.58965077544663   -1.12076708342130
H          -1.97333943319857    8.18638046339847   -1.15782265175003
H          -0.77653495587648   10.74618447309712    1.92042524855396
H           0.27861124532605   11.12574973965762   -0.27617729570613
H          -0.01209573781310    9.42607820256964   -0.71179251550440
H           1.31977465905356    8.84186827445760    1.22302333468278
H           2.19014073348191    9.85819200654483    0.27576595834475
H          -3.15844430704751   10.50469275502274    1.00839039469685
H          -2.42312487728972   10.25679904604988   -0.58924498814732
H          -1.97677491426325   12.62583782183383    1.05141346365755
H          -2.81676716688186   12.53883309560884   -0.35714972667143
H          -0.25440649233325   10.02738031318403    3.93328132923033
H           0.68460716354714    8.32914605538486    5.52119397939402
H          -0.83285384561103    6.47707326964669    6.39868687122517
H          -1.74447885226553    5.26695538250508    4.46788648692624
H          -2.45991391651734    4.42118921669339    2.08938317418193
H          -2.99635403979199    4.12956634261322   -0.29727403250845
H          -0.61368213811864    8.91407082844843    7.45955670720379
H          -2.27026888184381   10.36614151459984    5.33806580773758
H          -4.74004691430399   13.78164136638213    5.73803612029388
H          -3.64480090115482   13.76650184080676    4.33443475976367
H          -3.14041810684464   14.57344905732046    5.83813810609166
H          -3.91168988054138   13.93975351418917    7.92602772490146
H          -2.12300338120423    9.49901803594731    8.98122557395828
H          -4.14885294960072   10.23402219172879   12.57999211059629
H          -4.72487995434465   11.64888278663519   11.65294947447556
H          -3.26211706083316   11.77312138840009   12.66124787778682
H          -4.47833015111322   14.28607550503681   10.19742038249393
H           1.06620296579864   13.47477969700370   12.90536384991579
H          -2.25507448975745   16.80961145919843   14.55408274861140
H          -0.59476093593333   17.70968472346523   16.07180991672746
H           1.68390916514593   17.69519369927950   17.00597857567235
H           3.34182126551437   16.05573516304808   16.21178799724196
H           2.73347619359560   14.41707551849134   14.47581199950277
