131
 SCF done       -216.327369301090          0.000888127182
C          -1.48158169974819   -0.06739042289701    4.37052652189841
C          -1.71328460123925    0.16110203572102    3.04088786565057
C          -2.43270308925673   -0.72158571848215    2.20989840795926
N          -3.02524729958623   -1.40018272596905    1.49854428162151
C          -1.19068140125339    1.26135883574279    2.33075322165303
N          -0.73898924557828    2.09781913988756    1.68736002777380
C          -1.77146738199792   -1.30497350339810    5.08374286231548
C          -0.96936833660497   -1.34840922373870    6.26229775323777
C          -1.00535578796783   -2.41479713479660    7.11390827154949
C          -1.86686659635403   -3.49761350621877    6.82736031621121
C          -2.68256271623490   -3.45247055510952    5.65957871449985
C          -2.61924725213050   -2.33940465619609    4.79078686428304
C          -3.54392943839592   -4.53558825876620    5.39033841183727
C          -3.59680365896383   -5.61368392083764    6.23100777129790
C          -2.79231441647730   -5.65813255974645    7.37961216952436
C          -1.94563971878610   -4.62324127576709    7.67096986123591
C          -0.18471925820303   -0.10467392523023    6.36593388390240
O           0.64484252606579    0.19049712287563    7.19448253105450
C          -0.68136213478388    0.76090205952664    5.25573909399237
C          -0.44831412461416    2.09252555519961    5.27633810256802
C          -1.12872147946822    3.12282155639208    4.53058538569297
C          -0.42100951675991    4.26413593066330    4.12980417218957
C          -1.06467379544443    5.23013323128693    3.39648650388038
C          -2.43188232048705    5.10665352349362    3.09957707212723
C          -3.15469373443087    4.00711088508459    3.54085658000786
C          -2.49612292592134    3.01974018448065    4.24209446338814
C          -2.83584336110742    6.25427130710172    2.31741382656173
C          -1.71735946894207    7.08593744365809    2.12829870300797
C          -0.51254429442868    6.52877202926913    2.84970893904795
C          -0.11300906042566    7.40135770026400    4.06389616424741
C           0.28591941661416    8.83724017074743    3.74997591767576
C           0.67307950080614    6.29288295680899    1.90185167686764
C           0.32426739424550    5.34697260490215    0.75842022469420
C          -1.82026871955556    8.21318368457169    1.34886981524110
C          -3.05845432113687    8.55146243075848    0.78450340335352
C          -4.17431697778218    7.73994633595599    1.01693638646098
C          -4.06518142285568    6.58700312211363    1.76895790938275
C          -3.16318517116921    9.76802411385018    0.00587668553126
O          -2.20724267992417   10.72503179644003    0.16587554921763
C          -2.51257753387923   11.76112344443655   -0.59382233665570
C          -3.66534026548674   11.51449452196344   -1.30583899451479
N          -4.18989888074602   12.38689047482482   -2.28667622009759
O          -3.72170390800804   13.50926727519998   -2.32589172148030
O          -5.04274218150183   11.96324616973364   -3.04108638194006
C          -4.10595023550456   10.20368550930685   -0.91652189464506
N          -5.18231085460555    9.49886188447298   -1.38848139493074
C          -6.43710489427044   10.01199178972952   -1.66700235368489
C          -6.85169037114392   11.22600752652133   -1.11112780874750
C          -8.11263984930910   11.69359397002977   -1.39121545407309
C          -8.96516178318067   10.97224987120194   -2.24706010768929
C          -8.56478493992141    9.75135329339854   -2.77403439955053
C          -7.30792692343599    9.27233574924081   -2.47104993345924
C         -10.17891082339886   11.73054555692636   -2.43179924024852
C         -10.07841195418979   12.92153316664546   -1.69042163672777
C          -8.77472203715151   12.96640921945374   -0.92334244839957
C          -9.13712676722035   12.92618468792251    0.58041190018084
C          -7.97247380818045   12.73567264783606    1.54332578918912
C          -7.94598122268437   14.21200175275924   -1.27306594487943
C          -7.63865350630345   14.30715248690107   -2.76311357630791
C         -11.09310950510291   13.84234633274989   -1.68145069960248
C         -12.25752508420352   13.59652483787331   -2.43194058463581
C         -12.33636167903730   12.40251436238748   -3.18329864068348
C         -11.31959807878135   11.47571002187737   -3.18701852705480
C         -13.39547672850013   14.45925335886115   -2.49712210911358
C         -13.75186610181826   15.63735784302164   -1.90104965789318
C         -15.03635531973838   16.28044751982955   -2.17319159108692
C         -16.03510466277615   15.84262285125234   -3.00528022728281
C         -17.25468055165305   16.52581769309333   -3.20243208185657
N         -18.27321090748883   17.01279660693888   -3.41316066066212
C         -16.05090603978859   14.67109133869229   -3.79225951223965
N         -16.18522799205691   13.75382510338672   -4.47240783578702
C         -15.10792350307816   17.50683782444558   -1.38703714416991
C         -13.90782946181901   17.62700875380517   -0.63645274712329
C         -13.02784427538253   16.48011750869671   -0.91681977916935
O         -11.93897358236246   16.30897268411181   -0.40501427408511
C         -13.67585117177781   18.67795303584735    0.20290862616814
C         -14.65933072072068   19.68274428373238    0.33410389821794
C         -15.86692069954148   19.57222637298226   -0.41311907213749
C         -16.07552644153225   18.47118293411988   -1.27496597203446
C         -16.84447001009084   20.57880853010306   -0.27448954501796
C         -16.64035812061709   21.64300991888486    0.56076321322170
C         -15.44990801359575   21.75090329396165    1.29529925840389
C         -14.48050354730941   20.79158375529648    1.18425638112282
H          -0.38466524805581   -2.43252412804200    7.99739743513363
H          -3.25314086547959   -2.32533170263827    3.91776066557657
H          -4.15826440122289   -4.49816593253297    4.50289683040813
H          -4.25859682564719   -6.43900691431747    6.01525899490671
H          -2.84745263622002   -6.51621196475639    8.03254369612695
H          -1.32465651474296   -4.65182297422207    8.55405648556089
H           0.30405863320959    2.42417957361969    5.98517431535482
H           0.63043831643803    4.34262308165966    4.36260960398130
H          -4.21103593712528    3.92057628873858    3.33601128398452
H          -3.04680981040054    2.16437008948690    4.60741694119422
H           0.71798981974240    6.90327637191273    4.56788829987491
H          -0.95766863722759    7.41719632343644    4.75818556471628
H          -0.55362143359037    9.39515521872625    3.34494581989780
H           1.11097419213556    8.87499249559422    3.04402598981394
H           0.60559761083542    9.32832839571777    4.66653401094305
H           1.50354451538487    5.87807310613379    2.47638617220702
H           0.99491456435435    7.25056028742048    1.48986029895473
H           0.02317544760922    4.37316130833212    1.13503750198385
H           1.18781864879883    5.21263375478185    0.11137171940229
H          -0.49109183368535    5.75122538851623    0.16212672672909
H          -0.96657573044252    8.83977682657031    1.14580945386335
H          -5.13839173710849    8.03021074803335    0.63043804008361
H          -4.92820855253580    5.95893507502797    1.92948704151980
H          -1.87153628757934   12.62050206962249   -0.58952624765708
H          -5.04851205364959    8.50823661890605   -1.52945434426715
H          -6.18371086717608   11.77824978704309   -0.46842964429820
H          -9.22055077406554    9.18808119004259   -3.42031574882341
H          -6.97397230778867    8.32733583943538   -2.87506900101060
H          -9.85113116582859   12.11198544069106    0.73248242621447
H          -9.64812436862090   13.86125279102774    0.81723940940817
H          -7.21341151371014   13.50088510270836    1.40463079242122
H          -7.51780323898439   11.75642451878411    1.41647275216186
H          -8.33716315656151   12.80667950523584    2.56594719356015
H          -7.00648298410492   14.18808657917034   -0.71874586138665
H          -8.50125106460924   15.09704470254633   -0.95627860227025
H          -7.05590514357212   15.20260178307033   -2.96533825625025
H          -8.55734044693750   14.35489596757840   -3.34365510331704
H          -7.06637133309641   13.44476578256001   -3.09762502412391
H         -11.00635667130221   14.74817073770318   -1.10780224057002
H         -13.22643630683824   12.21337530642228   -3.76680407252118
H         -11.40666817218162   10.56888677880708   -3.76643662931898
H         -14.14796992028238   14.06750220908530   -3.17170922361827
H         -12.75235642654639   18.74011716788434    0.75948718345036
H         -17.00141353858461   18.42284378199839   -1.82463068496876
H         -17.75937884965764   20.49156073073420   -0.84213899243067
H         -17.39547769950793   22.40843247997104    0.66024223548233
H         -15.30529630409477   22.59775262685502    1.94959539155860
H         -13.56164748223362   20.86867365646973    1.74723652908904
