99
 SCF done       -194.622785473456          0.000412348474
C           0.28607534110870    3.34011089625724   -2.58271566533711
C          -0.55525903544333    4.41507037150482   -2.51379897471803
C          -0.73826885725436    5.32996003987051   -3.57281970624833
N          -0.91682507507755    6.09478116428404   -4.40879449769823
C          -1.41912202033199    4.67094745277900   -1.42730912616939
N          -2.20189131911730    4.87684732406618   -0.61352361556939
C           1.00093947238565    2.88689481254788   -3.77060045332845
C           1.36756638463051    1.51832172339368   -3.59319379127619
C           2.02196240484122    0.81765338734411   -4.56726007096127
C           2.35145395072114    1.46542613631694   -5.77783798589466
C           2.00391365621941    2.83744381073486   -5.95431402490154
C           1.32395679330326    3.53737376051343   -4.93120612658750
C           2.34593099779036    3.47339573829620   -7.16494867908531
C           2.99688771286258    2.78913470308762   -8.15541089311154
C           3.33739563535886    1.43895822684506   -7.98131077927270
C           3.02142897576985    0.79095706802873   -6.81814937724375
C           0.94900148158433    1.06752918813191   -2.25987492132513
O           1.03050323018462   -0.03076111403072   -1.76691340195257
C           0.44680293380732    2.30805561733850   -1.57575620407610
C           0.37221603101008    2.32888941584369   -0.22235441715981
C           0.29740602724229    3.47353955678042    0.61690002152259
N           0.59847575377449    4.69067128569069    0.18993316584797
C           0.46581809098427    5.50267649111886    1.25492891538609
C           0.08535962665003    4.74585868728219    2.45855554672577
C          -0.12694357340476    5.65896234418686    3.59503635329338
O          -0.42899974270316    5.38654104099740    4.73581879722783
C           0.11519005249917    6.98223492657884    2.99507211273820
C           0.49920946475064    6.83830032150418    1.57000303913858
N           0.70630711340947    8.05128933784595    1.00693530868777
C           0.46023533863904    8.91847815303396    1.95749977359959
C           0.07470105869557    8.31864141030320    3.22293238211352
C          -0.03700335448752    3.43887308358674    2.06084124095155
C          -0.44367668504413    2.28400638822265    2.78866754832167
C          -0.48236747857013    2.24364079788293    4.14037633786105
C          -0.95585525707952    1.11321574291751    4.87330227608997
N          -0.83523577406795    1.12413056144692    6.18774866962391
N          -1.29801472379737    0.21941420004275    6.97799159223747
C          -2.12697256955536   -0.73832615850203    6.59175077346150
C          -2.31848877209001   -0.90945494383963    5.18488372640480
C          -1.63113633041343   -0.00818413150803    4.29305086939144
N          -1.89085514835612   -0.40113718795133    3.06397629710583
O          -2.68701425696764   -1.46385458378643    3.18280767206518
N          -2.96255325171382   -1.77954037836893    4.43675582181720
C          -2.79131186230546   -1.56291683223074    7.55607095759888
N          -3.36748669979666   -2.69504793318108    7.20485851151376
C          -3.97139454879738   -3.16145495359563    8.32021634159783
C          -3.77736615073733   -2.24395461497029    9.45436797025205
C          -4.45765667582518   -2.75816916616876   10.65630413572918
O          -4.52844171057539   -2.25931486802291   11.75649898491219
C          -5.04618780178719   -4.02439829603239   10.17486954701859
C          -4.72703336418630   -4.22660220055982    8.74131878392435
N          -5.27222536115752   -5.38382662785401    8.29040056421232
C          -5.88880469628932   -5.89803440524053    9.32306765613782
C          -5.78926657504133   -5.09866117470711   10.53470083944863
C          -2.99952989634312   -1.21534491558765    8.98589708518575
C          -2.48032830111176   -0.04952273900954    9.61071685082186
C          -2.84578674997358    0.37466277699586   10.84499047267346
C          -2.29726987348340    1.51852234053815   11.49105169108248
C          -1.75564355208835    2.63658856013851   10.92848958890418
C          -1.05311588518215    3.68024274947770   11.66154324475828
C          -0.65969093338200    3.63650507831615   12.97416645577001
C           0.04044171479406    4.67434647686945   13.62602884892273
N           0.60385734596570    5.47658874523135   14.22360137678207
C          -0.85941730409220    2.56476020644184   13.87045001835456
N          -0.95379210890496    1.74309501407157   14.66739769123518
C          -0.74641705433159    4.75799026433666   10.73090331265528
C          -1.22553871058651    4.39641916352852    9.43930264549497
C          -1.91124507434412    3.09688078579665    9.51195195091467
O          -2.54505194678965    2.57113301201715    8.62353611884137
C          -1.02827412561381    5.19248775063621    8.34649378874956
C          -0.33922979596595    6.41562297292407    8.50511181257778
C           0.11167538098650    6.80208079493502    9.80002234835222
C          -0.09965363449991    5.95306943005258   10.90952140745175
C           0.78151189023735    8.03407463999049    9.94667351566264
C           1.00491728250824    8.84084778364648    8.86456919023398
C           0.57216742056879    8.45154572677905    7.58776775015925
C          -0.08744119122553    7.26565432336562    7.40995629722507
H           2.28533396094482   -0.21841683826207   -4.41457914727045
H           1.08353430748400    4.57757230212361   -5.08542418773305
H           2.07954104179357    4.51167615412886   -7.29609976197773
H           3.25301594706837    3.28470437908975   -9.07959742062520
H           3.85126031159933    0.91535010686473   -8.77323101413185
H           3.28066105697698   -0.24812685150413   -6.67827351567483
H           0.46332567330394    1.36556249498296    0.26851176790347
H           0.55432423697424    9.97356280462006    1.76775035294803
H          -0.17938393374150    8.85728683785299    4.11436550923202
H          -0.73614302172126    1.41011608999386    2.22115682722425
H          -0.16721405247188    3.08569321077645    4.74056968118439
H          -6.41119528885724   -6.83478420529986    9.23395946398164
H          -6.22475126577282   -5.34723334331869   11.48213793738747
H          -1.75095036607482    0.49684631303614    9.03248484446376
H          -3.53533331949720   -0.22180581356645   11.43028607873648
H          -2.32847384375978    1.47171527976316   12.57365006940341
H          -1.37730729227357    4.89258185596909    7.36986390175625
H           0.25931232451764    6.27148477349335   11.87505127116807
H           1.11894641325136    8.32554292892931   10.93057027870244
H           1.52067372699827    9.78189533679778    8.98612156521899
H           0.76899972579125    9.10013146064150    6.74642617250359
H          -0.41709009600814    6.94771818351551    6.43296604106152
