134
 SCF done       -220.643703688115          0.000743735109
C          10.83464073805370    9.57040529292228    4.30808647481661
C          10.21607774906277   10.68776566279809    4.81945180106021
C          10.36254688158017   11.13019517941303    6.14688328790549
N          10.41998631209762   11.52235536122672    7.22546302881708
C           9.42698283673195   11.56531273413343    4.05370915801174
N           8.80050702810452   12.32867209939795    3.46635860844515
C          11.87345394284303    8.80549416699623    4.99634481892065
C          12.58923919408124    8.04606958520342    4.02663478201335
C          13.64268193331384    7.25156503769322    4.37113688934094
C          14.02832992565473    7.16850601761011    5.72913270033613
C          13.30867459418817    7.91441791019486    6.70533836342543
C          12.22530857561590    8.73746243392159    6.31622439134207
C          13.69891374992689    7.81817227265016    8.05594408976368
C          14.75064940577151    7.02510862703081    8.42703469461417
C          15.45868145359624    6.29074777279587    7.46497935375288
C          15.10528261307231    6.36169266060857    6.14463863960185
C          11.98262601968591    8.26597332335641    2.69905150897873
O          12.35242690444297    7.82537369692554    1.63182146361336
C          10.78143677593415    9.10111199036033    2.94888271759423
C           9.84774391188706    9.21358532337624    1.95059536430934
C           8.48878254941046    9.54860217346821    2.02168552369696
C           7.62500410508376    9.60955738033697    3.11438871822419
C           6.31299857171962    9.90126255622873    2.78642338806728
C           6.15950800032375   10.07748906266207    1.39751642300456
S           7.61424254005346    9.84981197696235    0.52818803393508
C           4.85239700888867   10.38961985548351    0.96732920024651
C           3.88417566830888   10.50180943399107    1.97455594667827
Si          4.67638603608724   10.20182304078860    3.64707481927555
C           4.00263252834712    8.67847512145608    4.50571339871625
C           4.71605740213607   11.71107204770996    4.75152341482891
C           2.62666760315620   10.77090349794629    1.43484944393339
C           2.60508556946247   10.85957995009994    0.05441513020589
S           4.20410791846658   10.61774154169722   -0.60722654420004
C           1.47379019481132   11.05306204450912   -0.81394205021535
C           0.22559396530314   11.32911614929196   -0.30353815364194
C          -0.89503350961649   11.41366978181129   -1.15612560786178
C          -2.24364568134047   11.61762085370258   -0.90871238365791
C          -2.99501883947066   11.98803250862528    0.33109969604610
C          -2.37246084769874   11.54603284983775    1.65907468690898
N          -1.95784474401951   10.15249090333017    1.60883016331911
C          -3.20677253997663   13.51685990586559    0.35085908031062
N          -4.06745548589009   13.89584076032129    1.45870133079489
C          -2.92432795233579   11.48356613057785   -2.17941422612365
C          -4.23232628577706   11.49505078528265   -2.49458260143118
C          -4.70941503106146   11.22976411751002   -3.88275097413973
C          -3.61626508646954   11.10811489626701   -4.90086400366455
C          -2.31253163745827   11.09999553724923   -4.57071244076466
C          -1.91518702148151   11.24110308169947   -3.21944537966450
C          -0.69320666857102   11.19627068608767   -2.58811726592229
C           0.61114588045240   10.97305757412380   -3.09050814730835
C           1.65478907428296   10.91090666040608   -2.23176473508356
C          -5.70818573983485   12.26621794813478   -4.32164091717110
C          -6.94850408673387   11.95957033323161   -4.71192653393325
C          -7.94212403894524   12.87806240364935   -5.18519775078070
C          -7.89745091492850   14.24887877994005   -5.33912965980424
C          -9.07652775192845   14.80067615144340   -5.84828629243045
C         -10.03611642571284   13.80910463333625   -6.08419008192691
S          -9.48567573986255   12.23345706959568   -5.67930362632002
C         -11.27157931420404   14.25100199921904   -6.61123760552318
C         -11.37531772043275   15.63900379468988   -6.82661009080474
Si         -9.77588804716134   16.47703722099600   -6.32485066299939
C          -9.97757750999943   17.62945421766982   -4.86338107498626
C          -8.87470105891607   17.26759086685375   -7.76226496345147
C         -12.61332673608172   15.98061332032249   -7.34768651234958
C         -13.46633567451521   14.89750229804908   -7.54105944747490
S         -12.68131052354715   13.39450946458304   -7.05035520705650
C         -14.76573320148680   14.77018444685480   -8.05545690284088
C         -15.67987343125868   15.69865225173814   -8.48914704625397
C         -16.97961270890001   15.33812289002863   -9.02914825801916
C         -17.43596060753510   14.08198295919086   -9.34413294989228
C         -18.71658313112820   13.81670197809496   -9.87242587800741
N         -19.73996412246811   13.51675728546530  -10.29931220607415
C         -16.72342134893086   12.87049517757799   -9.22833218169882
N         -16.22984962246255   11.83298787064694   -9.19002260139549
C         -17.73601707970182   16.56825891574261   -9.23967648940988
C         -16.90548085660878   17.66938836672695   -8.89416855414859
C         -15.59417505061225   17.17388043829735   -8.43808988583800
O         -14.66280288767591   17.87402926183596   -8.08853684515128
C         -17.33566174400588   18.96044515468992   -8.99416300618629
C         -18.64804821993442   19.21539772323301   -9.45158791271204
C         -19.48866015725439   18.11863466789872   -9.79580389195697
C         -19.01225112361259   16.79191963864706   -9.68323616097801
C         -20.79716790782151   18.38227362749394  -10.24883805387565
C         -21.25520627577087   19.66706944000482  -10.35746867372850
C         -20.42640211722051   20.74656199972191  -10.01808060989414
C         -19.15050262776413   20.52541994874220   -9.57514552573871
H          14.17660158091957    6.69031965229428    3.61871103451401
H          11.69365491303173    9.28618319606807    7.07799903508318
H          13.15217730687469    8.38796094270322    8.79307301119034
H          15.04276171277444    6.95992659441535    9.46459507127433
H          16.28540358424326    5.66871223757204    7.77454986029108
H          15.64713961828618    5.79843885615499    5.39884380768242
H          10.20855093468725    8.90864604145402    0.97230607450897
H           7.94849838555764    9.39100759231107    4.11675335102676
H           3.99107556725031    7.80691780794856    3.85385107274725
H           2.98244328947847    8.83171130947052    4.85120475096106
H           4.59568183977629    8.41661015107483    5.37966653004095
H           5.18627113176191   12.56097775395089    4.26063701557761
H           5.28051500936682   11.52231695899250    5.66266008658873
H           3.71859083565099   12.02324499933060    5.05441702685415
H           1.74304768998083   10.87589879531019    2.03760189035429
H           0.09094194731312   11.43959111920227    0.75583046046447
H          -3.98701593106811   11.52137606438326    0.26510593227792
H          -3.11171935368769   11.75737957376308    2.44803994412400
H          -1.49320178605159   12.15722610698032    1.87637496952269
H          -2.74168533368695    9.56416623873739    1.34653319117606
H          -1.63739673068361    9.84953660125661    2.52222065486782
H          -3.59880256429229   13.82888123994642   -0.63248438684178
H          -2.23900842108768   14.00437185204564    0.49445595796129
H          -5.00782874995357   13.54340721437821    1.31105712426787
H          -4.12344688071891   14.90492884809203    1.53522223600531
H          -5.00543281835641   11.65847356706635   -1.75528181156116
H          -5.23859970618346   10.26262070069788   -3.84867288978524
H          -3.94051617282468   11.00464680355206   -5.92514449578853
H          -1.55363398820655   10.98187049298133   -5.33065292082185
H           0.75611661942263   10.84259648535304   -4.15282595338721
H           2.65420809309033   10.72989540274506   -2.60002243527695
H          -5.34764064769124   13.28391476294677   -4.33577600658690
H          -7.26643631568049   10.92393962758435   -4.69024877598247
H          -7.02993956809640   14.83284545405704   -5.08968063872820
H         -10.47628744571502   17.14919675138068   -4.02351796275423
H         -10.57025841289850   18.50250147845135   -5.12841750988297
H          -9.01891564394070   17.99501577437913   -4.50089988422543
H          -8.75558077621400   16.58489502843671   -8.60148968144953
H          -7.87929409275369   17.60423896027004   -7.47969138604792
H          -9.41038025419078   18.13872159210370   -8.13363695961426
H         -12.91356284985069   16.98386301356982   -7.58756799558980
H         -15.09395873153246   13.73847753217706   -8.10587824591272
H         -16.68260003505637   19.77801964136698   -8.72661442449113
H         -19.67648184858442   15.98561659032811   -9.94944898607955
H         -21.43100622056034   17.54740569655022  -10.50979979744982
H         -22.25916734737771   19.85857557966002  -10.70583056871062
H         -20.80389357769577   21.75420827894042  -10.10926316811559
H         -18.50760618352821   21.35299848241091   -9.31241516585773
