168
 SCF done       -261.412412337327          0.000278882269
C           4.58640496586217   18.54401618480842   -5.73766460226273
C           4.85978054697137   17.59305353220175   -6.69942502410245
C           5.22019656295593   17.88325083322041   -8.03023150478547
N           5.52737300954816   18.02687453772164   -9.12824692152463
C           4.76318606374963   16.20634021510126   -6.52821593423947
N           4.69113948542236   15.05880266644926   -6.44042910910411
C           4.53994195866300   19.98176313282967   -6.01359969089623
C           3.98750748400842   20.64976504616894   -4.88371726876974
C           3.80434747452109   22.00054425542553   -4.85983452128975
C           4.18730256374187   22.76848572035240   -5.98354696691250
C           4.75715942845390   22.11204254910625   -7.11072338812513
C           4.92409022812270   20.70726619916673   -7.10909434939267
C           5.14833654840639   22.88688711806616   -8.22114080381072
C           4.98265957824010   24.24529805696197   -8.22103430636156
C           4.41865072249583   24.89052512057935   -7.11105438735216
C           4.02923987470232   24.16729078293087   -6.01607060390899
C           3.71855693845235   19.65502709685360   -3.83191070719443
O           3.22136039998669   19.84585719897491   -2.73786110810486
C           4.19036069787472   18.36221499540909   -4.36669537320073
C           4.22251089899985   17.31748270008469   -3.47340939592849
N           4.75992372504970   16.11493384734911   -3.57083553758213
C           4.50672247117073   15.07832531923966   -2.59091845018332
C           3.21546062681987   14.37569396075410   -2.93144551554750
C           3.21350560082183   13.30582323354733   -3.81237802947847
C           2.02909228530402   12.68537996193975   -4.18504397949213
O           1.92513364885521   11.64934360449708   -5.06450619710236
C           3.07671988273689   11.20550572016690   -5.75942001339850
C           3.91304350724664   10.22361840137523   -4.94336370845519
C           0.82350698275022   13.14465999786540   -3.63550884697978
C           0.82709466182290   14.22442735593228   -2.77100519794230
C           2.00978008429333   14.86873803390292   -2.42538338010464
O           2.08854710506055   15.95982553186368   -1.61519432108304
C           0.89595904092510   16.59526721525883   -1.18843251138005
C           1.29000475692332   17.88297872582361   -0.48159604167687
C          -0.45835581639633   12.42708895291168   -4.00708808440434
N          -1.67247494302021   13.14574412668946   -3.72593795640367
C          -2.12884713206541   13.27672933607260   -2.44088241897611
C          -2.97337056455864   14.23971892145811   -2.03079891132692
C          -3.52211655974495   14.40630988351241   -0.70713117547215
C          -4.42526223713361   15.41866323343917   -0.47699092696281
C          -4.95780415811987   15.63542803419580    0.81040635018660
C          -5.85890303094113   16.57360283991096    1.28780703717657
C          -6.56772719414982   17.60578454826346    0.47014236838185
C          -8.09695445508260   17.50618286147004    0.61205503331897
N          -8.52169376499550   16.11275332803287    0.65228196657080
C          -6.05597803120300   19.01698921865086    0.80844024439096
N          -6.50772764005550   19.98111866924591   -0.18342335977679
C          -6.01375998094028   16.32871796071964    2.69918451520415
C          -6.73974913895785   16.94474637899467    3.65178972189211
C          -6.81598538757186   16.43110213740621    5.04286361498603
C          -5.88951844422450   15.29473850738192    5.33639459182034
C          -5.13709332963852   14.70736092831486    4.38866287044552
C          -5.17221204989198   15.17683607027074    3.05358361792240
C          -4.53001011280580   14.77125711694608    1.90192719476020
C          -3.60458939333467   13.73457282837850    1.64026630779959
C          -3.12415005602616   13.56194844032862    0.38397551085753
C          -8.24483646530047   15.99325269485603    5.32871412201584
C          -9.03115983667319   15.46994660507434    4.38711015904529
N         -10.27197192351159   14.93259392346700    4.60770810161669
C         -11.23799663220822   14.85829424463725    3.53371568994402
C         -12.23879198300579   13.76804058530564    3.81291715802487
C         -12.29598787770791   12.63219800465769    3.02654612730538
C         -13.21211764852450   11.61311371888019    3.27489422845622
O         -13.35109966281732   10.48132382706309    2.51956638025727
C         -12.36476546052831   10.15329524265652    1.55990559225120
C         -11.05927675146707    9.68283319684944    2.19265617482879
C         -14.08084720371169   11.74747306578890    4.36053014841318
C         -14.02215801444095   12.88389859164263    5.15357822147484
C         -13.11581220471636   13.90203475416173    4.89861495309733
O         -13.01109292383435   15.03784173084547    5.63838622469456
C         -13.92102170988631   15.24411190994742    6.70853347220772
C         -13.62705753805636   16.60015189208473    7.32660164186926
C         -15.10442710447013   10.67563746593756    4.67626014457758
N         -16.45038403032057   11.20067093035562    4.64691042677304
C         -16.97801750623050   11.87765027610831    5.67136272331957
C         -18.07747498999432   12.68578693838444    5.60661321076352
C         -18.47517181205978   13.43366396855433    6.72010077413937
C         -19.55351973048671   14.28449067610660    6.77446434172917
C         -19.87935545505447   15.16471826191438    7.86640020654649
C         -19.02008438251351   15.58206938223316    8.85837747930396
C         -19.38746354560352   16.44147668985842    9.90985162207051
N         -19.63218157999015   17.12849621084495   10.79808061470063
C         -17.64882647879385   15.27118189882045    8.89329171109434
N         -16.51236560240479   15.09668350773449    8.94062881379169
C         -21.24108417931001   15.64500253448356    7.65961582919489
C         -21.69197298526185   15.17598069380807    6.39211659930128
C         -20.63488901002167   14.34562319569797    5.77483870798679
O         -20.67786554751084   13.81165007077512    4.68234000704042
C         -22.92970920735225   15.48587341547325    5.91187668448845
C         -23.79374946736663   16.28691070022670    6.69462755419075
C         -23.35295148790816   16.75043318627366    7.96666375821941
C         -22.06033280886879   16.41842692787572    8.43612015145719
C         -24.22497868092151   17.54279417740426    8.73980143571208
C         -25.47279564631251   17.86549650131727    8.27979819066816
C         -25.90550991101010   17.40977263270787    7.02634349105884
C         -25.08336309442344   16.63737275543270    6.25095070876472
H           3.37769600548853   22.48078130836167   -3.99168892621803
H           5.36428925329977   20.24511349655423   -7.97814286519675
H           5.58061061592054   22.38492977702342   -9.07455890301764
H           5.28553111976206   24.82994572558715   -9.07698567289148
H           4.29461496450925   25.96322121742072   -7.12715706976763
H           3.59488159625698   24.65884851065439   -5.15754692397206
H           3.79971209295493   17.55186335442410   -2.50028173471091
H           5.06449693012388   15.77680732745718   -4.47599832421160
H           4.42822824520880   15.53726940209372   -1.60421073113499
H           5.34441579578963   14.37834151774243   -2.61033904220806
H           4.16002643779720   12.97692437061960   -4.20919610052612
H           3.67800977642662   12.05918610295476   -6.09142766467708
H           2.68023810165451   10.69909363643589   -6.64448953503452
H           4.28379530016593   10.68596807873008   -4.03206569918551
H           4.75764019597804    9.88397716063752   -5.53642689551992
H           3.30711672755519    9.36419273599389   -4.66724381362136
H          -0.10909462388264   14.56583467405680   -2.35964011939128
H           0.33962011835388   15.93664081223199   -0.50710828825762
H           0.26127596210315   16.81974861857160   -2.05572159382975
H           1.93910824863141   17.66057656114112    0.36135901262137
H           0.39828797851423   18.38492004606275   -0.11806469808069
H           1.81656242577383   18.54676238639522   -1.16364247740224
H          -0.48946691247247   11.47353338383531   -3.46778255756274
H          -0.42663649784091   12.19223891693774   -5.07473128795116
H          -1.84246228534827   13.94342235696078   -4.32312550335401
H          -1.78911290280807   12.49248552041824   -1.78012865333690
H          -3.28254767094490   14.98356777654032   -2.75694347122626
H          -4.72277222087948   16.06265488211933   -1.29367937183760
H          -6.32235622594015   17.42874520646145   -0.58207521955931
H          -8.55901120956246   18.06505219151269   -0.21943187596592
H          -8.42731438504144   17.96788853920700    1.54755079491722
H          -8.08302861291242   15.59822072455353   -0.10467348904005
H          -9.52736163483739   16.05504021565912    0.52646779256569
H          -4.96303268213205   18.99882938507403    0.77312305087636
H          -6.35340765112443   19.27589386446919    1.83772630685425
H          -7.50992341292323   20.11954011392600   -0.11061606769336
H          -6.06276289424176   20.87905151087411   -0.02818355808927
H          -7.35402621885818   17.80766668831301    3.44006205262204
H          -6.59233453066796   17.25656220399496    5.73488908406070
H          -5.88499300368964   14.93859561132995    6.35606394092270
H          -4.49600791007837   13.87108553376641    4.63190355554837
H          -3.28516848430757   13.09056637486523    2.44779949918521
H          -2.41270509464588   12.77302521609589    0.19315852797159
H          -8.57190711694740   16.05538690537554    6.35634745278502
H          -8.68692728289376   15.39675508054361    3.36324768759883
H         -10.68828753051111   15.13558541837469    5.50615475386146
H         -10.69656834039313   14.64961128103591    2.60818975801634
H         -11.78070752628181   15.81110231064300    3.41591382600367
H         -11.60894690543811   12.56054236097731    2.19868830366157
H         -12.18945025869439   10.99500849753061    0.87911151970823
H         -12.81607098888223    9.33898907048543    0.98595460383070
H         -10.61441704256649   10.46954931796917    2.79689109371081
H         -10.35809647339062    9.39695170426164    1.41380940721657
H         -11.24754887196810    8.82352581116676    2.83148020423920
H         -14.70369426367009   12.96887581749253    5.98337938123945
H         -13.80030922602917   14.45758352519970    7.46364404542622
H         -14.95352182275857   15.21832083229047    6.33698487426105
H         -12.60999045284738   16.62909517123482    7.70845267778444
H         -14.32122742392595   16.77100054532406    8.14373235008096
H         -13.74425315381225   17.38576267297370    6.58487392232282
H         -14.91709035404145   10.27182014079094    5.67566015677924
H         -15.02062745437812    9.87090948301044    3.94571462461488
H         -16.84147528989223   11.37654633019348    3.73139640588291
H         -16.48293404029880   11.73393228230016    6.62478627571868
H         -18.62010440368217   12.80173670138278    4.68129261877375
H         -17.86245235181467   13.33978562110238    7.60930918612074
H         -23.25019387996614   15.12492139276849    4.94561500779538
H         -21.75335678398093   16.77988221081402    9.40517992634301
H         -23.88604932885463   17.89260109357897    9.70410973173924
H         -26.13291610822767   18.47424260893357    8.87977610412992
H         -26.89326263381933   17.67299730762545    6.67781309458360
H         -25.41185182805147   16.28300529145257    5.28451152103334
