136
 SCF done       -218.640785824650          0.000282259995
C           1.79145164031385    4.08206445566175    5.18972689918782
C           1.71019515115835    4.13933303771491    3.82351850389629
C           2.78695617914600    4.48973936516542    2.98584387752021
N           3.62459406763634    4.80533560086039    2.26668677522408
C           0.55153132210998    3.78761564530232    3.10227408114154
N          -0.34472617760766    3.45903427267845    2.46482799427418
C           3.02165298638350    4.14934613143209    5.96980129591346
C           2.78066791774300    3.55488234881183    7.24321343965318
C           3.77032718061473    3.43281436237922    8.17505750408459
C           5.06226426173966    3.92216485749022    7.87709567584143
C           5.30337196610646    4.53704677908849    6.61452002989459
C           4.26262488553722    4.63888475952883    5.66301855219055
C           6.59356942831137    5.03210935175841    6.33600568692651
C           7.59983417246494    4.92175210802584    7.25640245448875
C           7.36278689011388    4.31214409256187    8.49740574986656
C           6.12134996785004    3.82291723293881    8.80077327611050
C           1.36329074851181    3.15703140761653    7.33564487672589
O           0.80865224199649    2.57748573854071    8.24111516759550
C           0.72878585768356    3.68190140170025    6.09222591001506
C          -0.61942852143994    3.80929398674608    6.03173233862597
C          -1.41936718170085    4.60382695973654    5.13965493206459
C          -0.92067853676387    5.77601208634842    4.54631052085371
C          -1.73209134583599    6.51319005348412    3.72397628743589
C          -3.05730215805866    6.11016845487384    3.47420123164110
C          -3.56586212894651    4.96334566292734    4.06808315433205
C          -2.75041144846152    4.23083664728291    4.90504326775354
C          -3.67028116816890    7.07700877534262    2.59040309067752
C          -2.72266745315373    8.06851528763454    2.28540744500028
C          -1.41461223220148    7.79232612185101    2.98707065014263
C          -1.05048317286560    8.92747232964859    3.96227022589242
C          -2.13157196202326    9.18137848306961    5.00604658584925
C          -0.26897700262788    7.59003741477213    1.97696825782490
C          -0.59654164663110    6.55813226060248    0.90480821110874
C          -3.03521304690953    9.11326676555845    1.45057649033766
C          -4.32393689076845    9.18986104617463    0.90573066091521
C          -5.26854465615092    8.20885012438764    1.23547664381718
C          -4.95283108257521    7.15337204064406    2.06532119088193
C          -4.69545785445040   10.27129774528931    0.02104005871454
S          -6.36482993263393   10.70719507790906   -0.16789391799636
C          -5.99866358186197   11.96529924480757   -1.29549694553550
C          -4.62266881419301   12.04050529815516   -1.51671829597667
C          -3.88641240835201   11.07808132337584   -0.76367121085322
O          -2.54800208769223   10.87986691013958   -0.75512210350942
C          -1.73593723270670   11.50550739551839   -1.72296035878652
C          -4.05465242846812   13.00992004067739   -2.35569693862316
N          -3.59919331370545   13.81818109383963   -3.03524236938346
C          -7.08387563700313   12.73683377616077   -1.80195672057587
C          -7.01862656885875   13.66261211617822   -2.78095988030133
C          -8.10777685069354   14.47975322538763   -3.25707579677526
C          -7.88825755166848   15.25925505173967   -4.40509501884290
C          -8.87443483945039   16.09439689791792   -4.87116161674156
C         -10.12015399573037   16.13669263491368   -4.21968597479130
C         -10.35632566106147   15.36377671170327   -3.09016453473135
C          -9.35127618010856   14.54977740945034   -2.61373349150419
C         -10.98000718287844   17.05915718854522   -4.92286136577117
C         -10.27137088715306   17.58494564749839   -6.02022604759310
C          -8.87201260204497   17.00429462095787   -6.08393737917573
C          -7.87044134442517   18.17151959800839   -5.95638934823164
C          -6.39412041461526   17.79648080097441   -5.94495715839048
C          -8.65238288627598   16.12155214504962   -7.33103444360100
C          -8.68614020009841   16.83775940889241   -8.67480400158585
C         -10.85785660232875   18.53534625881047   -6.81739468715266
C         -12.16291872209057   18.97832628632566   -6.53406707206352
C         -12.87209993320320   18.40448119303782   -5.47040461764991
C         -12.28682478579947   17.45109852330437   -4.66485534618227
C         -12.73573820379091   19.97870000631344   -7.39283051659152
C         -13.60654295787596   20.96960456516203   -7.06538254440011
C         -14.19966299251367   21.90147756472494   -8.01262584053393
C         -14.31451953382603   21.71396450205306   -9.36482130888372
C         -14.93027942555980   22.63398664319939  -10.23862050056077
N         -15.41407324139161   23.34620335694446  -10.99817502800611
C         -13.87270435266635   20.57054414451845  -10.06353924044413
N         -13.55710169903159   19.66659084865770  -10.69785153040276
C         -14.73433079704060   23.02761517491330   -7.26046572422986
C         -14.55921148783364   22.76575342645879   -5.87246582193322
C         -13.89992088469434   21.45882925201081   -5.68892498817327
O         -13.61100033336944   20.94771832307192   -4.62954987079175
C         -14.96411417135239   23.65022893883033   -4.91495072529898
C         -15.57565941890299   24.86096991316638   -5.31007491845405
C         -15.75094010355870   25.13257423624593   -6.69775554849566
C         -15.32031860491276   24.19769389154622   -7.66650080115317
C         -16.35819054742488   26.34607736669660   -7.08041356695242
C         -16.77350496066699   27.24842679163088   -6.13958787755523
C         -16.60027641153310   26.97998603969165   -4.77351662640911
C         -16.01495058701763   25.81151243366528   -4.36773539419536
H           3.57087144427919    2.96937508557505    9.12981403589129
H           4.46939283392661    5.11259095669525    4.71568534366129
H           6.77226203841273    5.49717874601483    5.37759266445617
H           8.58497469569157    5.30304589109300    7.03291783948912
H           8.16849180950367    4.23259617621444    9.21180721101060
H           5.93266307227109    3.35288091395583    9.75487999959409
H          -1.15996784549203    3.28474855501011    6.81439377616624
H           0.08192656519131    6.10874701363333    4.77379851301382
H          -4.58296002867296    4.65202608684928    3.88473278068064
H          -3.12659108318406    3.33266071529653    5.37238402061967
H          -0.88330409004098    9.83983850218228    3.38621430558285
H          -0.11357210866123    8.67292049537597    4.46279246202550
H          -3.06985685412806    9.45298386729373    4.52746473884168
H          -1.83279826466205    9.99408565435456    5.66414920652628
H          -2.30045657349531    8.29313662766058    5.61108532238691
H           0.62683960775460    7.27937238553668    2.52008849876064
H          -0.05267000941823    8.54889601180468    1.50075631476444
H          -0.84442857525293    5.59747209607179    1.35053821609653
H           0.26109606067890    6.41861524904361    0.25070149495544
H          -1.44065189722520    6.88607301330854    0.30249880873972
H          -2.30938314933017    9.87439785399439    1.21991064574784
H          -6.26214061242726    8.28003753380054    0.81591481343712
H          -5.69191091318506    6.40167479661201    2.29726479979927
H          -0.75204131592634   11.05205413044971   -1.60828999177016
H          -1.66163498724907   12.58226712176009   -1.55056314533124
H          -2.10189171454856   11.32483605558925   -2.73679447188025
H          -8.03244164097304   12.51187300482963   -1.33278079647586
H          -6.07386814134152   13.83099124380109   -3.27642144443184
H          -6.93704862504779   15.17764373911873   -4.90849139636955
H         -11.31247234211146   15.40252868754342   -2.59022985120641
H          -9.52642219690886   13.96405520369110   -1.72482798322572
H          -8.10587199663046   18.70479529808251   -5.03113174102092
H          -8.05353366126413   18.86190008084978   -6.78156111414152
H          -6.14061971063359   17.22510085021849   -5.05710582691286
H          -5.79513709106411   18.70495060929331   -5.93802534666834
H          -6.12208278439658   17.22200194968345   -6.82622094205433
H          -9.42576183050288   15.34845049714104   -7.32525891757665
H          -7.69125541922103   15.61699113757116   -7.21995805657335
H          -9.67462452456824   17.23819189635839   -8.88021700498919
H          -8.44357374018571   16.12908420213163   -9.46401639100147
H          -7.96003746433372   17.64525936047311   -8.71407928049946
H         -10.32432907490784   18.98838668743132   -7.63945705186244
H         -13.89393926564037   18.69720567026616   -5.29601622314397
H         -12.83611318659780   17.02246345741063   -3.84067559973190
H         -12.37697274645854   19.95120195286796   -8.41612652142460
H         -14.81933736025626   23.42811713100642   -3.86799749504794
H         -15.45790877309744   24.43547759133063   -8.70944549874964
H         -16.49028083417329   26.54755086911002   -8.13337527383978
H         -17.23800545874440   28.17474907473621   -6.44280630849173
H         -16.93266033065207   27.70390005775634   -4.04450422740765
H         -15.87873773852252   25.59931972190049   -3.31729188858905
