115
 SCF done       -209.845109871432          0.000884331809
C           4.63884411802997    4.30753350102107    6.25633841186650
C           5.09738171624332    4.48468318830233    4.98243999831418
C           6.00487518906067    5.49932700525697    4.61223020849489
N           6.74000930698014    6.31155855079588    4.27234761719115
C           4.62846377023982    3.72930490356186    3.88618536647202
N           4.21644146075868    3.18239765686404    2.96551742591915
C           4.87519835450919    5.18253164411733    7.39590607430594
C           3.87563417441987    4.92991752344633    8.38438614218571
C           3.83712840652185    5.62809780403484    9.55841629129025
C           4.81359001338982    6.61859714368474    9.80348280163331
C           5.82080973497489    6.86703367134173    8.82477300879929
C           5.83550192987267    6.13326568605069    7.61686697770891
C           6.79213774354695    7.85482584204761    9.08628528280530
C           6.77168506881403    8.56429242551985   10.25614443373438
C           5.78068689940183    8.31875178357694   11.21888320399448
C           4.82214711000977    7.36771233223829   10.99711488656433
C           2.99225862081261    3.84738181346546    7.92576952925460
O           1.99669239196062    3.40495707125394    8.44657643859432
C           3.63852080925488    3.33932052857845    6.67352038624595
C           3.36864410857083    2.09626481569489    6.21882586638084
C           4.17199500471152    1.34084488598854    5.30777024500221
N           5.48524001713639    1.48014144959975    5.28101060909394
C           5.94294998833847    0.52730773308627    4.43616498105250
C           4.84338189350787   -0.29285530319151    3.92358190141964
C           5.34172289069412   -1.31973396690328    2.99646860913737
O           4.72162964284303   -2.18386129185912    2.41978137071809
C           6.79226442912619   -1.02809341435300    2.95659592849552
C           7.11359140066656    0.09814436377641    3.86416558529470
N           8.43678513517815    0.39161062119308    3.81269071963089
C           8.93882049420903   -0.44568223235457    2.94103925370939
C           7.96368682399839   -1.35182351615047    2.35708957436148
C           3.68930088702431    0.24284298941019    4.43974609686538
C           2.35197319904792   -0.14439694329396    4.16724586091673
C           1.26547915106593    0.65397333336998    4.31103192656502
C          -0.05973366822486    0.25763721995792    4.00225031805743
S          -1.32972211776388    1.46515156995207    3.98771735663258
C          -2.47571783521513    0.26887763895060    3.54886264903206
C          -1.90334838561240   -1.00607946293740    3.43823580485613
C          -0.54328843743109   -1.00867682004375    3.68615017175537
C          -2.94651939647512   -2.03376274422209    3.06978486641444
C          -2.62518790586306   -2.70326258856033    1.73086794899856
C          -3.10549484351079   -3.08166910596566    4.17567135494673
C          -4.17093007786997   -1.15567371582680    2.96590935669010
C          -3.84969911787116    0.18178081837250    3.25084241537002
S          -5.19532016261741    1.22940042471104    3.11975095331749
C          -6.22193809953778   -0.13236186278098    2.68081545831713
C          -5.50314546479462   -1.32947427920346    2.65556949793726
C          -7.58345308853913    0.02079445541328    2.38148873602382
C          -8.25646191201667    1.20763645399976    2.31455072258233
C          -9.62387956588662    1.25259291947023    1.97892513815070
N         -10.34038215642553    0.14046722622877    1.80089021378333
C         -11.57671531918670    0.54255660331370    1.48664794384855
C         -11.67954783788607    2.01177372541837    1.45582656180142
C         -13.03670272306406    2.42532866769199    1.04280784160731
O         -13.45518755652814    3.54397131569277    0.84670126205114
C         -13.73064717153822    1.13650087089924    0.89112978850577
C         -12.80939369507636    0.01643033939790    1.16151627917819
N         -13.43728850885727   -1.17028173974715    1.00537888764064
C         -14.66956567377474   -0.86215866402980    0.66290028270322
C         -14.91919279460443    0.55644551941379    0.57085984676580
C         -10.43126444296087    2.48369543089166    1.77549152257370
C          -9.93600176461729    3.81238505295553    1.86754578770404
C         -10.71067144811005    4.92798772986267    1.85431926833437
C         -10.11475853710357    6.21338596440733    1.88885935693040
C         -10.78654314383698    7.39600917330376    1.97375960275330
C         -10.21391437419057    8.72700780546089    1.88151099139278
C          -8.88385441242177    9.05641041186062    1.93692645930409
C          -8.39262959088664   10.37625313008195    1.85663904942269
N          -7.92626861413430   11.42388463668468    1.79683687541196
C          -7.82266787778021    8.14521241153474    2.11588131344471
N          -6.90641854247433    7.46971591313955    2.27139075611444
C         -11.31652342768213    9.67349318571280    1.75670135756084
C         -12.54453667935196    8.96523032179805    1.89314318622339
C         -12.26449438270970    7.53221328270943    2.10702502677717
O         -13.06444525214826    6.66680022197263    2.37686883587894
C         -13.75256638722636    9.59546016129890    1.82170657095432
C         -13.79014898446055   10.98965225431470    1.59474626478119
C         -12.56654164475050   11.70478526214684    1.44909274123658
C         -11.32993579991730   11.02582084666854    1.53571392724528
C         -12.61598183992089   13.09467587318896    1.21716513650272
C         -13.81492468489066   13.74824868677426    1.13319271992804
C         -15.01909904438515   13.04313985713786    1.27743494375754
C         -15.00686663494336   11.69359293219866    1.50372570836760
H           3.07156273455800    5.42557735387130   10.29267493990669
H           6.61464885612882    6.32965291645280    6.89688893975503
H           7.55191737129837    8.04132234721705    8.34183085191514
H           7.52013505263197    9.31843559516262   10.44723063524128
H           5.78129609227518    8.88656449814309   12.13711054667270
H           4.05671761015169    7.17479347140381   11.73437602042982
H           2.51958315598600    1.58590933584120    6.66140897412000
H           9.99117714002472   -0.43017711399539    2.71598891482504
H           8.17442128527731   -2.10151791274451    1.62036283293021
H           2.24416422073725   -1.13217563270564    3.74081846082986
H           1.39386282266295    1.68002526927866    4.62989957567896
H           0.08446113314491   -1.87957994786681    3.65261831173991
H          -1.69841995786124   -3.26547148640199    1.80855754626716
H          -2.51437928391410   -1.95527312956885    0.94930501220246
H          -3.42604391010841   -3.38326905622299    1.45234384948908
H          -2.18660800075964   -3.65205683263887    4.28302160427371
H          -3.91519833112355   -3.76354478753973    3.92908444215978
H          -3.33098132967873   -2.60078537011794    5.12476780470268
H          -5.96884673532190   -2.26550001612462    2.40594702351107
H          -8.14538875270502   -0.87848632161183    2.16543862248671
H          -7.73458392216423    2.13497657506307    2.50528943390905
H         -15.38939735760451   -1.64040050719460    0.47679853824884
H         -15.85268346404128    1.01174052594240    0.30557573622772
H          -8.86241199941447    3.92784374773763    1.96258643630194
H         -11.78831293065346    4.85367873342180    1.80538906572678
H          -9.03511537772165    6.23899536231154    1.79823235801659
H         -14.66904244699660    9.03501145649082    1.93105613453981
H         -10.42157423149957   11.59487680474206    1.41683608795344
H         -11.68602330140408   13.63309421605200    1.10743701939451
H         -13.84234761176503   14.81274813212456    0.95456436026321
H         -15.95637239859354   13.57485617006774    1.20804772922267
H         -15.93075698273475   11.14526666926067    1.61539012105574
