144
 SCF done       -230.179838801343          0.000456690856
C          -8.09666141787945    7.05580445059291    5.16092918226743
C          -8.79946663478065    5.87913403765713    5.16240046304594
C         -10.15559557676222    5.77631107313520    5.52590056518501
N         -11.25500049035383    5.64826440462838    5.83161659184385
C          -8.25024549073066    4.66702372983185    4.69873285127939
N          -7.85270840894572    3.68663030612620    4.25260758589876
C          -8.65476595893747    8.38995339327714    5.34524095965669
C          -7.73104681056619    9.34239903395488    4.82194803646838
C          -7.99961831402934   10.68027933388482    4.83407179514052
C          -9.21694386052232   11.13478833469048    5.39052625306629
C         -10.13734134727110   10.18869734659008    5.92681877224514
C          -9.83812818947611    8.80719417467143    5.89167342921901
C         -11.34311579615956   10.65691460316145    6.48704551212158
C         -11.62944292160704   11.99455142173534    6.51550513909701
C         -10.72332650939108   12.92533705441605    5.98611075113274
C          -9.54351525884924   12.50441364105094    5.43513008481226
C          -6.52637496698695    8.63928969101164    4.33923616594636
O          -5.56026330858948    9.10912398439767    3.77943926726874
C          -6.71944397893471    7.22155045672751    4.74095111905352
C          -5.66664098687429    6.36536109278531    4.78260540392925
C          -5.58090635730145    5.15142748435195    5.55459595505615
C          -4.88854618166954    3.99280304721428    5.16170183184800
N          -4.32333978274554    3.66052770993746    3.96257797652381
C          -4.33286913094134    4.48442760698346    2.78243842402463
C          -3.06377791374030    5.32410947220833    2.64744564124935
C          -3.79842886558314    2.38269543033449    4.05374493163198
C          -4.04733551855186    1.87771669183878    5.35177456417209
C          -4.76943513058671    2.89672821462440    6.05499230341955
C          -5.32436618837591    2.93483715879583    7.32107067430607
C          -6.01727716011681    4.07159428607813    7.70362341133336
C          -6.14835107320535    5.14004224608987    6.83726969854852
C          -3.61668092135173    0.61538996139217    5.73334079269019
C          -2.91968196367539   -0.14094876939701    4.81460403022090
C          -2.66496898007592    0.35691687286927    3.54271823957920
C          -3.09684426403725    1.61100684372674    3.12611977212710
C          -2.75077982261982    2.00872732251188    1.74144929131475
C          -3.63926996783375    1.85600113505642    0.71855610885416
C          -3.23906032789463    2.14410129744687   -0.61094481528511
C          -3.91677408774528    2.03191386317586   -1.81206998328458
C          -5.33162662887544    1.57010855197588   -1.96527908829087
C          -6.29453473569295    2.71439793295790   -2.34275594288095
N          -5.94465195305306    3.34657824903795   -3.60636281359725
C          -5.46341255150813    0.38593185579018   -2.93477188322891
N          -4.65076964332618   -0.72082771621902   -2.45675607564674
C          -2.98026856509946    2.40686144411705   -2.85172105636209
C          -3.08472101121582    2.43548295333537   -4.19388334302657
C          -1.94220155648955    2.83315931685044   -5.06645498341304
C          -0.70658341293863    3.23811375548411   -4.33338396534492
C          -0.61070814766130    3.19369003588206   -2.99186496632252
C          -1.70924523014189    2.77219869457418   -2.20723195354675
C          -1.87812129641467    2.60644857997503   -0.84687601121480
C          -0.98984923144772    2.76273194632827    0.24139846893385
C          -1.41706011982748    2.46093376440812    1.49490373084136
C          -2.45289506041652    3.88762520226640   -6.02329126989390
C          -2.17585983839337    5.18166657315236   -5.92506001515720
C          -2.74434068178537    6.17937117560108   -6.83815457523506
C          -2.01167142417785    7.16298020333375   -7.51420579909226
N          -0.65254839441513    7.42167719552590   -7.54340942196372
C           0.34731634574419    6.67165968281243   -6.83023209845738
C           0.61531565587245    7.22583460975987   -5.43080604941649
C          -0.41404869740043    8.45922119272057   -8.40822891128643
C          -1.64393006422283    8.88441105940424   -8.96964398177756
C          -2.66516161747136    8.06320248310357   -8.38791854161417
C          -4.03731274153333    8.01324831555707   -8.58627999172820
C          -4.75816446374873    7.04765942834502   -7.91456439707189
C          -4.11791553794933    6.15131848984821   -7.06935223855375
C          -1.69204615090404    9.88143205447779   -9.92876925402532
C          -0.50173733476501   10.44922539425810  -10.35029890317298
C           0.70550034272200   10.02384312548733   -9.82918998261739
C           0.79530724041989    9.03444280683915   -8.84050825125230
C           2.08310281963004    8.75465196556731   -8.25868899715972
C           3.25536482999144    8.63170217312781   -8.93796992293267
C           4.58194362431825    8.54885460255056   -8.35185604166171
C           4.91673152493142    8.79524153411506   -7.04433431860329
C           6.23107486009188    8.73191640106148   -6.53731217935267
N           7.27418667333445    8.69539709136264   -6.05868091227229
C           4.01196106202710    9.15100910426556   -6.02440603452298
N           3.33667939568209    9.44142454856073   -5.14086217803987
C           5.52000680038572    8.21428066798975   -9.41572944038960
C           4.80083647754945    8.10499964614125  -10.63949687584379
C           3.36921686161084    8.36658823234377  -10.39828581277489
O           2.47711531708221    8.30318081863651  -11.21589275094825
C           5.42028084761315    7.79581212641093  -11.81551749709253
C           6.81719074960497    7.58334845234514  -11.82396326935843
C           7.54467853033018    7.69045667311579  -10.60376585585415
C           6.87451850860971    8.00686954241882   -9.40022839162584
C           8.93786299193760    7.47489307829476  -10.62267999413119
C           9.58309503755193    7.16863325064199  -11.78961554893291
C           8.86563199326102    7.06305503276518  -12.99051940400860
C           7.51238801647314    7.26652237119753  -13.00733097601336
H          -7.29089882974195   11.38617621749793    4.42689470370732
H         -10.54739151310325    8.11033469380079    6.31102656657912
H         -12.03872057008402    9.93587169442547    6.89087891144182
H         -12.55643326820784   12.34295445433652    6.94586621582341
H         -10.96454241291416   13.97741376443185    6.01741030103215
H          -8.84163023823880   13.21675449355735    5.02643536590680
H          -4.76306994238207    6.72698416763128    4.30503616262602
H          -5.21539182179256    5.13036088165805    2.83625806716331
H          -4.43507143103795    3.83945023101864    1.90713996412310
H          -2.87321389460471    5.89600408061614    3.55304191497721
H          -3.16396617216217    6.01322451418190    1.81328361284713
H          -2.20667495073067    4.68112571847053    2.46296774674776
H          -5.22415169995263    2.09433926718648    7.98994996133940
H          -6.45543404630944    4.13296757978774    8.68822592817121
H          -6.66013222703277    6.02982889594565    7.17630168311270
H          -3.81976619833550    0.24454804431193    6.72605392861690
H          -2.56530978117914   -1.12596905164091    5.07809612828855
H          -2.11678698668280   -0.25026075982821    2.83650462364895
H          -4.63632528830434    1.48901066544977    0.91776983186477
H          -5.65819779112049    1.20163687809310   -0.98783605043059
H          -6.31702473859085    3.42955870250029   -1.50348190070226
H          -7.29719875486464    2.29144006922408   -2.44957442403585
H          -5.11816608105577    3.92319785719615   -3.48305652979667
H          -6.69878909136056    3.95532235463783   -3.90554124453297
H          -5.21406608130212    0.70969881053695   -3.95446911547197
H          -6.50476658428480    0.04969858386037   -2.93909924402565
H          -3.68059499970352   -0.43067877363269   -2.38328003328780
H          -4.69933259408323   -1.50236369686135   -3.10076256700516
H          -4.00935233106048    2.20204491839974   -4.70067410352751
H          -1.69194210786586    1.95207108121698   -5.68202193893379
H           0.12885289725623    3.54571629018247   -4.94525102454185
H           0.30694601812408    3.47662271349632   -2.49567469537548
H           0.02046279585986    3.10167457332216    0.06344657371354
H          -0.74897379089358    2.54363817020960    2.34123295843024
H          -3.09806455330796    3.52676452755314   -6.81290750051586
H          -1.53865088987178    5.53031281638834   -5.12472743936539
H           1.26756082082732    6.68137457538218   -7.42439929050803
H           0.00166353009510    5.63615497948891   -6.75905744856211
H           1.01949969646950    8.23444160313659   -5.46615829948316
H           1.32903041778895    6.59092052220896   -4.91211874092654
H          -0.30392767996946    7.26255148467541   -4.85144056698134
H          -4.51980913114288    8.71029124077205   -9.25342595084832
H          -5.82763821019975    6.98030201421955   -8.04482695183751
H          -4.70354657544700    5.40711951617614   -6.54960079790450
H          -2.63738160592921   10.19918879815315  -10.34072121929035
H          -0.50970989990242   11.23186168492725  -11.09302550669416
H           1.61595011463805   10.50134529039047  -10.15559547722987
H           2.11787806415399    8.70085501050571   -7.17975638038576
H           4.85069772569696    7.71711934355965  -12.72972994530640
H           7.45284699761489    8.07402649866454   -8.49251541606728
H           9.48579667398971    7.55841970922241   -9.69550844349858
H          10.65057879133987    7.00652684253274  -11.79399895884696
H           9.39062366745007    6.81971336595985  -13.90218541255540
H           6.95467601994568    7.18649699744353  -13.92906730155896
