134
 SCF done       -220.849158805126          0.001298487799
C           3.32321122140821    1.07408158617237   -3.02029246372759
C           3.06385233775392    2.04104771620242   -3.96054652461747
C           2.33063312385274    1.80937808521788   -5.13885626172254
N           1.72849120751050    1.66732996241854   -6.10687480296482
C           3.61051353643653    3.33753529285810   -3.89317487343327
N           4.08990027557559    4.38132043162088   -3.89470604879837
C           3.06905477347143   -0.35379499376103   -3.18678090177407
C           3.93495584725846   -1.06627234702741   -2.30671810715755
C           3.95050463414227   -2.42971218737249   -2.26779954452760
C           3.07227271708586   -3.15355129437340   -3.10719272312319
C           2.18932471536164   -2.44577332909434   -3.97200142921130
C           2.20655440775322   -1.03126981710589   -4.00310014048711
C           1.30805403425339   -3.18017649006139   -4.79039157712634
C           1.29976297136192   -4.54833725659828   -4.76126770349693
C           2.17290361733232   -5.24467926468347   -3.91306002988999
C           3.04050408838747   -4.56180146695069   -3.10447876940003
C           4.71264994057125   -0.10056121686351   -1.50332996135284
O           5.57946431771433   -0.33758776982418   -0.68895733219172
C           4.15633622438356    1.22942503163343   -1.85353327476684
C           4.39301803780782    2.29694523288228   -1.03222522996001
C           3.65039464057133    3.47663805256246   -0.85463335983006
C           4.04561550480695    4.57779553424372   -0.09873340932447
C           3.08537537370948    5.56720217668375   -0.00098312453453
C           1.90728810393703    5.21884373457723   -0.66750640179142
S           2.00533865860662    3.68324909238894   -1.42804341417243
C           0.82600832623004    6.12235924234931   -0.60654715757879
C           1.00012798968279    7.30426697755012    0.10874382591122
Ge          2.83602570585487    7.33714378050222    0.82592901098848
C           2.90170170614705    7.29276935240300    2.81080082415718
C           3.99424781411791    8.74050287181235    0.03645194353456
C          -0.15154592722284    8.08433458639851    0.11682942788263
C          -1.20800947588470    7.52758635495899   -0.58220477616886
S          -0.75438510303702    5.99353478134067   -1.27962314404739
C          -2.54403452965032    8.03778978121862   -0.74031337490103
C          -2.98392064034365    9.10830149394979    0.00456349436256
C          -4.31438756284773    9.55517020694823   -0.12150589237461
C          -5.00470006600940   10.56250215444813    0.53402590709254
C          -4.54093403616584   11.52113783913318    1.58415434818959
C          -4.45277292108982   10.80734853628366    2.94612688307628
N          -4.40139039512339   11.78278352597036    4.02392628946281
C          -3.24174890409047   12.27061158795953    1.20394847483803
N          -2.02075106588022   11.56335917200124    1.56892112429950
C          -6.36763165877022   10.50780155347949    0.05736177618628
C          -7.46825888590483   11.18546850884653    0.43134037064065
C          -8.80703115871700   10.89124292778176   -0.15451156407139
C          -8.79226019595678    9.88478748384121   -1.26515112686773
C          -7.68537086197111    9.20797014697015   -1.62004855102258
C          -6.45558707747257    9.45169829162481   -0.96240099799113
C          -5.20777388636782    8.87564190100897   -1.05450462613572
C          -4.71512320201716    7.79731526466482   -1.82809025735991
C          -3.43254297981311    7.39379216611073   -1.66746186293211
C          -9.46920117129863   12.16341177981553   -0.61115377004986
C         -10.66847047534817   12.55556644500763   -0.17309005917912
C         -11.36570898132273   13.74541008561851   -0.56376416475192
C         -10.97991560663474   14.78145505125415   -1.39097221476464
C         -11.94003540326405   15.78515096979263   -1.50921279241177
C         -13.07916074833392   15.50636960867557   -0.76140525472892
S         -12.96027097332203   14.01190159917317    0.08515498748376
C         -14.13847903468635   16.44181194291212   -0.78328033160872
C         -13.96601936799467   17.59719003780214   -1.55344449329882
Ge        -12.18874382009045   17.52988261306116   -2.40422294386917
C         -10.95836347152282   18.93249217040974   -1.73208752579028
C         -12.24923028597505   17.41274796745777   -4.38283326774657
C         -15.06060706112024   18.43937836367552   -1.49067077957295
C         -16.08848530523207   17.95904775370202   -0.68263425015356
S         -15.65452067800225   16.39616927131502    0.00825592590997
C         -17.36101021268307   18.44415013324394   -0.34484052227883
C         -17.99985086106150   19.62590359943463   -0.62821934023852
C         -19.35526585115058   19.91530757653511   -0.19420327404892
C         -20.26698148449325   19.03518418791071    0.33439997575954
C         -21.56940095524934   19.39579899997446    0.73759779581203
N         -22.63900363451404   19.61343056503406    1.09558852455465
C         -20.08154551661477   17.65052152442512    0.52797097703227
N         -20.03779664518188   16.51519388627610    0.70261287278258
C         -19.62636385759279   21.32108642968091   -0.47521802197279
C         -18.49589881600768   21.87033353659835   -1.14069408720598
C         -17.45901430583357   20.83221149679333   -1.29012644390709
O         -16.38608522326878   20.98460447953711   -1.84241995427564
C         -18.45591621047163   23.17364244096978   -1.54277526419147
C         -19.56860291845338   24.00707757340218   -1.28886285656038
C         -20.70337684133236   23.46633749896964   -0.61951950594722
C         -20.71487630365542   22.11076215343652   -0.21688477038731
C         -21.80821818025764   24.30535913479318   -0.36999319488551
C         -21.79492264430831   25.61622209557487   -0.76218541928605
C         -20.67630967709196   26.14817376566356   -1.42036576301270
C         -19.58710052708242   25.36060717822152   -1.67820931906062
H           4.62203448013417   -2.95343263879625   -1.60325889023735
H           1.52515925736628   -0.51638965035003   -4.66282209782797
H           0.64055879888900   -2.63929270921457   -5.44504984754125
H           0.62076580325102   -5.10155561909869   -5.39281521862987
H           2.15410275856700   -6.32445401385247   -3.90245015987033
H           3.71457795431533   -5.09287841950495   -2.44821390327609
H           5.21883001307531    2.16451001975335   -0.33871848442948
H           5.02454587148504    4.63843567392072    0.34484370154212
H           2.30985030537816    6.46520197611360    3.18937744840099
H           2.50841147405376    8.21786447868842    3.22014515474737
H           3.92603173577682    7.17276585672217    3.14960403407497
H           3.89491432637316    8.74391192435911   -1.04420815383202
H           5.03247236531442    8.54908859457352    0.28964583679588
H           3.71923447769537    9.71876726607296    0.41798302800594
H          -0.21919772689806    9.03670734765101    0.61236006889879
H          -2.33782254174848    9.61557992792281    0.70239853239809
H          -5.31286369429410   12.28962478125058    1.69123991400833
H          -3.60686221637515   10.10452212914686    2.93106739863091
H          -5.36788139863927   10.22362582426014    3.08171107707255
H          -3.52760964719595   12.29776958159834    4.00432803059317
H          -4.46568681524077   11.32045479633888    4.92401793467413
H          -3.28494238467019   13.27372539820130    1.65843797473575
H          -3.23439834147950   12.39953195931497    0.11840446089118
H          -1.85643738524717   11.62330687112005    2.56810210429240
H          -1.22801315055326   11.99015754228432    1.10310480707879
H          -7.44171134672522   11.95551328431383    1.19084071667340
H          -9.42515657882553   10.47673266632625    0.65910203298254
H          -9.73913587583514    9.71485570229581   -1.75487319029774
H          -7.72104460268057    8.46843228475499   -2.40715386626260
H          -5.36974969539507    7.30150308179628   -2.52963473876280
H          -3.04572505478481    6.56677125728220   -2.24549710842863
H          -8.91891745907007   12.73840488287485   -1.34069675973731
H         -11.19492562069903   11.94053372995196    0.54690332587323
H         -10.02664248216419   14.80773591597538   -1.88854089298266
H         -10.95327775695188   18.94199503512511   -0.64665420563274
H         -11.28201259394010   19.90617841410201   -2.08673741885014
H          -9.94784827213152   18.75244481735594   -2.08544921717320
H         -12.92621032083673   16.62462146384377   -4.69682594976287
H         -11.26038174589692   17.20284430638921   -4.77877317093985
H         -12.59521596803068   18.35503375112508   -4.79602717906797
H         -15.13470641736148   19.38177534809934   -2.00297495524094
H         -17.92274157712547   17.74782721201015    0.26737371313182
H         -17.58528599409857   23.56496659654032   -2.04822126650855
H         -21.58814173587041   21.73457683459274    0.29140830733535
H         -22.66727162397512   23.89040417900760    0.13673841206552
H         -22.64677295835297   26.25056538377118   -0.56727478504367
H         -20.68202653386565   27.18500455928197   -1.72238414341420
H         -18.72291433208604   25.76488149684386   -2.18518683444311
