135
 SCF done       -240.222986106646          0.000961708332
C          -4.69970288258426    7.68925692087894   -0.30708246072872
C          -4.62970332728657    6.87463100891997   -1.40453072935570
C          -5.28330527935348    7.15277045769088   -2.62383972198996
N          -5.79604801589434    7.30615076935348   -3.63997684809946
C          -3.99919761959744    5.61730709144874   -1.49632906389940
N          -3.56125627213606    4.57542049447248   -1.70158980053296
C          -5.48846278346073    8.91711236219231   -0.23673277295774
C          -5.62373463462350    9.30263079743680    1.12863119260036
C          -6.33789899754804   10.40603500070818    1.49722553343071
C          -6.94809734278973   11.19886063262732    0.49943894758969
C          -6.79172712220311   10.83699921012280   -0.86945553089549
C          -6.05368144281671    9.68400275918668   -1.22093926449717
C          -7.38597139205520   11.64719372495169   -1.85853354508810
C          -8.10535082336507   12.75856313906506   -1.51372688876494
C          -8.26308261379940   13.11142061428373   -0.16504367646852
C          -7.69690539509316   12.34837632991001    0.81973772487127
C          -4.85407701416151    8.37191933223145    1.97191730568130
O          -4.74257811286144    8.37532658333683    3.17759169579474
C          -4.17060925567106    7.45125644623861    1.02261881945209
C          -3.19573382170711    6.63373624102660    1.48183951363024
C          -2.21447333298545    5.90689780360402    0.68931813623598
C          -2.05272731154929    4.52318066001352    0.89510492957986
C          -3.01334756572222    3.93889239374412    1.84168664529550
O          -4.03278686398328    4.56438051236425    2.09931789701784
C          -2.71243231922717    2.65251200823590    2.48202283900989
C          -1.45465817981257    2.14970771287521    2.69084668614105
S          -1.47223003764966    0.63933606803288    3.48952712164103
C          -3.19423178175191    0.64999131863204    3.53934038876928
C          -3.72167798516702    1.78015162825482    3.00577277180045
C          -5.19436913655536    2.04953910897101    2.94951017699947
O          -5.93184176482805    1.35801733962112    2.28475220533967
C          -5.65286566151338    3.19515035090730    3.75987592928273
C          -6.85954957722151    3.80611355347958    3.42306963342554
C          -7.29447003883857    4.91548701094424    4.12040800847075
C          -6.54078310115667    5.41213899656370    5.17137694767369
C          -5.35564890559967    4.78984663269038    5.53198012829466
C          -4.90765782028579    3.68890104644118    4.82991815523067
C          -1.15429563016289    3.81570003230045    0.10415257272015
C          -0.41312942415322    4.46576392939219   -0.85977032723080
C          -0.54618192551457    5.84298340138676   -1.05788389809473
C          -1.44041142593754    6.55456603159487   -0.25723708022579
C           0.18024236873366    6.54275999341105   -2.09891419161755
S           0.77316106191397    8.14767720247078   -1.79742913364618
C           1.37475734408815    8.27777071275575   -3.41592803824834
C           1.11032956932244    7.14360710773487   -4.14335103606567
C           0.44471423607085    6.14739807498174   -3.38855978246363
C           0.06467957583048    4.82674812327096   -3.98388338206712
C           0.02045227188594    4.91566084969933   -5.50580006362600
C           1.34106807195973    5.49922340948716   -6.02640517008776
C           1.38174292048420    5.39841917148651   -7.52610424854811
O           1.45336220020252    6.32279909577724   -8.28691323980350
C           1.46593816294629    6.95409032913920   -5.58286403211005
C           2.12951274135109    9.47359689514948   -3.76856423424844
C           1.91129259543507   10.19087457174426   -4.95403789170905
C           0.75118366831673    9.89254487119531   -5.83764152672948
O          -0.36521170712040    9.72483158793422   -5.38631777052471
C           1.01855429869124    9.84814278413524   -7.27913775887799
C           2.24111806611925    9.73655509978634   -7.89088576124516
S           2.11322756273748    9.65183822096777   -9.58706413391687
C           0.39414653602072    9.77823598772630   -9.50344497605842
C          -0.05218660398359    9.85781830485296   -8.22772800815188
C          -1.47855217298977    9.97961673343220   -7.78520246185222
O          -2.02071986054242   11.05631246393793   -7.69666950559066
C          -2.14523191664803    8.69550636133339   -7.47714751789288
C          -1.68515817743369    7.48406517332805   -7.98941227505286
C          -2.35480904239077    6.31219607378124   -7.68756260206766
C          -3.46246558558105    6.33432962026558   -6.85352740408165
C          -3.91701445853595    7.53563535712765   -6.33170368416740
C          -3.26941856003825    8.71243622843080   -6.65283691989294
C           2.70586926113926   11.29909835158390   -5.24280658819108
C           3.68125117122023   11.71873699595439   -4.36546392694125
C           3.86370861057973   11.05561304842661   -3.14618363191930
C           3.10440272185304    9.91961609727157   -2.88089191018044
C           4.85199726595828   11.56271078842618   -2.21945896586254
C           4.75110913099241   11.62217063386596   -0.87160888666537
C           5.77751474525623   12.14196142446043    0.02667925184903
C           7.11019891547342   12.25998344442620   -0.25776167400292
C           8.07207519760470   12.74207213747317    0.65588866679062
N           8.89804275112980   13.12957110564561    1.35207161957933
C           7.71167893524027   11.88304097358805   -1.47810685829574
N           8.27293531263364   11.58058016179350   -2.43293741638174
C           5.14757480283003   12.42771321362832    1.30641239232450
C           3.79184304349840   11.99625988198308    1.25075114794284
C           3.49957593846255   11.42636523139177   -0.07586781521893
O           2.44707485002008   10.95295924657032   -0.43729193366725
C           2.94816837580412   12.12853413075569    2.31635488028711
C           3.43106705245235   12.71225333939782    3.50825537734776
C           4.78435967123532   13.15591918723902    3.56913014648091
C           5.63447171787598   13.00482746408697    2.45060315307345
C           5.25301229898609   13.74329775281261    4.76236396910080
C           4.42749367886349   13.88418818359831    5.84428019250462
C           3.09607233373677   13.44543369755632    5.78368530262644
C           2.60856881552888   12.87157146279966    4.64105147163957
H          -6.43146970911494   10.67540032389086    2.53890686978403
H          -5.94221777740913    9.44472756737195   -2.26654963110695
H          -7.26317988551147   11.37012219209225   -2.89522022087526
H          -8.55700048961701   13.37258147126694   -2.27843596262584
H          -8.83421925990620   13.99185422823414    0.08933553724754
H          -7.81361772180773   12.61650529490796    1.85977718305576
H          -3.04818179449668    6.65695685577199    2.55796993667454
H          -0.51537925554775    2.61063386169054    2.45731006851185
H          -3.71960071052938   -0.17079432737825    3.98519283711259
H          -7.42544800540507    3.40861252913224    2.59386724077563
H          -8.21911897059028    5.39940010342935    3.84197477252248
H          -6.87298413470962    6.28754293536050    5.70899091885671
H          -4.77500785194146    5.17439896946817    6.35758051343209
H          -3.98121796993547    3.20813773245878    5.11172338520485
H          -1.07506749705084    2.74467873922188    0.20457119755769
H           0.27874119963050    3.90424363692458   -1.46499934977472
H          -1.55110282576279    7.61993509811646   -0.40184461271162
H          -0.90537372347437    4.50964832134187   -3.59484955475655
H           0.80506734452730    4.07255992877321   -3.69592216647141
H          -0.79963173468272    5.56812655555727   -5.81048190205182
H          -0.15180931309129    3.92382923475673   -5.92793953788736
H           2.16797935702281    4.89572015167381   -5.63223366708866
H           1.31907142092517    4.35675569841544   -7.89952661470384
H           0.77178340037796    7.53289796838855   -6.19815073179109
H           2.47215127073204    7.33265687475845   -5.78237693754378
H           3.20538045068063    9.67645894761677   -7.42570509051917
H          -0.18227749864376    9.77527006698338  -10.40692240725865
H          -0.81590979539060    7.45547437312034   -8.63053166303232
H          -2.00901149352654    5.37684712905565   -8.10539153333053
H          -3.97165472864671    5.41402362459646   -6.60731077451350
H          -4.77251989791212    7.54692160041653   -5.67349322605068
H          -3.60510989921490    9.66095990796375   -6.26262779701614
H           2.52500523939835   11.85464802945591   -6.15091610730333
H           4.27805178511012   12.58892130883401   -4.59508837656264
H           3.28198009132016    9.35419369763631   -1.98015766793933
H           5.73078717471483   11.99280787117160   -2.68660947105799
H           1.92470070935221   11.79073826707409    2.24846294865712
H           6.65115223150853   13.35729217173986    2.52382318622949
H           6.27902452199347   14.07798387858589    4.80478610976302
H           4.79590190296658   14.33462299352484    6.75365953784364
H           2.45873586876907   13.56503827784652    6.64694036121104
H           1.58460015011329   12.53206009195065    4.58801088870767
