101
 SCF done       -198.935691638184          0.000784042562
C           5.03673891864075    1.80574961308368    0.74565482636826
C           5.11906070343860    3.16669506308856    0.65496899312228
C           5.91449228275100    3.83792639457757   -0.29744328105560
N           6.54196391901584    4.42420101703685   -1.05813330848030
C           4.51143146809182    4.05475684671235    1.57066749593794
N           4.13593688258704    4.82217115124640    2.33721359863651
C           5.84586658087094    0.84769696504298    0.00338490615778
C           5.82334435331703   -0.40265640899557    0.69328729708438
C           6.51608329486322   -1.48781569552809    0.23217839013821
C           7.25948532619460   -1.37172683190791   -0.96237328755605
C           7.27898069641059   -0.12822967539581   -1.66074021584205
C           6.55889635325055    0.98000796765074   -1.15738298836015
C           8.02608233335996   -0.03226722702442   -2.85181416033052
C           8.71957478321419   -1.11110712443723   -3.33074548090776
C           8.69356204287490   -2.33595635216925   -2.64598031653385
C           7.97864929816040   -2.46471331109293   -1.48590367060111
C           4.95097410223362   -0.30022331327354    1.86878045429117
O           4.71862439157837   -1.12929595137312    2.71495732565103
C           4.30685655035967    1.05397438232822    1.74791007730324
C           3.12155411819229    1.28441895286391    2.36913768840885
C           2.17498592187020    2.28405384611758    2.01956354205032
N           2.32457323772093    3.06566644547969    0.95995918622942
C           1.20947570402782    3.81386072254023    0.87986376429363
C           0.27112149055011    3.48950558766688    1.96217383525998
C          -0.94755789578331    4.31299070071725    1.85305264145078
O          -1.94004896878194    4.27938760164843    2.54728070464658
C          -0.66505611600173    5.15109112128922    0.67462836755372
C           0.65331935655796    4.79565062026638    0.09720956846149
N           0.90573527110835    5.53616079768859   -1.00727042594048
C          -0.13303240266102    6.32491872469746   -1.13731101885808
C          -1.15301053031720    6.13573934740006   -0.12061808145553
C           0.87424773148497    2.50163300183571    2.70255065301661
C           0.41668966168906    1.77837348198365    3.83253065324817
C          -0.83098520633468    1.90746206390049    4.35803601258424
C          -1.26820307112162    1.06570165824534    5.40815077170963
C          -0.58445283473225    0.03834700729611    6.05536136409459
C          -1.48425626995014   -0.62924542015901    6.93050066977336
C          -2.78431853639046    0.05320512927048    6.84537413810271
O          -3.84213414986906   -0.13884239162224    7.37565946317390
N          -2.53839434730307    1.08091600722579    5.91663018419235
C          -0.83446539506712   -1.74903948590065    7.39752111876282
O           0.44675624503114   -1.76293515071111    6.92244449521642
C           0.65296549408959   -0.70512949541190    6.05803006373062
O           1.69651095266977   -0.55383567126774    5.47454370374357
C          -1.28906980010623   -2.87456470716557    8.14310711558468
N          -2.17236671799381   -2.78346234605663    9.11645207757918
C          -2.27029185596189   -4.02275103652596    9.64132667375497
C          -1.37552723998953   -4.96828782856257    8.94627253665347
C          -1.49364553041659   -6.32332884024324    9.52361299880629
O          -0.92192646633534   -7.33458619751362    9.19459078711403
C          -2.48610189759677   -6.11929997831510   10.59797749826284
C          -2.92940530286150   -4.70278045138846   10.63387882831676
N          -3.85192749304312   -4.51837050039298   11.60947854656321
C          -4.01266645486726   -5.69485649910529   12.15871153523482
C          -3.19521291576975   -6.74350870532740   11.56960853332517
C          -0.76484006178727   -4.25724296530760    7.95437018354182
C           0.13013655589792   -4.65506153361591    6.91160643669938
C           0.08202620135472   -4.09098401017905    5.68108341495362
C           1.09361565516318   -4.25889871208106    4.70202874386214
C           1.23150124035721   -3.43707301712254    3.62092983661259
C           2.29905663279380   -3.46753991044196    2.63319445595565
C           3.37168958007660   -4.31685651964481    2.60662929160009
C           4.39136138202471   -4.27747412307174    1.63499566531395
N           5.25585909990705   -4.32025638447552    0.87993383358934
C           3.63284569804131   -5.35178642815569    3.53089373906829
N           3.91943591445669   -6.22311789985326    4.22127966138846
C           2.05101643894762   -2.39715483776926    1.67419166942292
C           0.88066956135524   -1.69244647446770    2.07035030102965
C           0.33580816376583   -2.29610714474410    3.29623865142941
O          -0.63928320324621   -1.90378916882736    3.91043078870329
C           0.40413141152439   -0.62536962581593    1.36310285604779
C           1.10942885210725   -0.18398542984204    0.22195138160889
C           2.29192684532242   -0.87407503320861   -0.17321240250077
C           2.73515430739235   -2.00160879678417    0.55488655655748
C           3.01317870162008   -0.39814825971718   -1.28758591158340
C           2.59883518071091    0.71493169035534   -1.96649914822273
C           1.42359880769068    1.38193922996474   -1.58971523875490
C           0.68743010182832    0.93147198534307   -0.52835891217025
H           6.48449332642324   -2.43102398715756    0.75776435936704
H           6.57686820295717    1.90634568315137   -1.70995907064442
H           8.04410305131700    0.91173943463574   -3.37631226771977
H           9.29170290992999   -1.02613075452693   -4.24243202178814
H           9.24305097884540   -3.17615208880204   -3.04278419289793
H           7.94728889237760   -3.40297241076415   -0.95297783079628
H           2.83533444429661    0.56420172498474    3.12770996045274
H          -0.18037334178457    7.03123191793920   -1.94776639241740
H          -2.07476743253403    6.67883091698487   -0.05483596164970
H           1.09686104192079    1.06070250192624    4.26830767385193
H          -1.53260175875174    2.62538887384229    3.95198686661596
H          -3.25799410343201    1.72249582764539    5.61615654322963
H          -4.70049757826392   -5.82396199503956   12.97637174301124
H          -3.18579996177543   -7.77116476170011   11.87436671930486
H           0.86423312665876   -5.41413264993256    7.15021411599597
H          -0.72421360574763   -3.41277965313340    5.44038171218454
H           1.83134880618027   -5.02885714424540    4.88563305932615
H          -0.49711370111516   -0.11825621155552    1.67631388744817
H           3.61645951286521   -2.51933499453141    0.21138912686869
H           3.90625999733026   -0.92695113818220   -1.58911254450686
H           3.16999675658086    1.08344692826360   -2.80501302862906
H           1.10806095880923    2.25411320641051   -2.14153301068082
H          -0.22599563810225    1.43251853009865   -0.23888215925525
