136
 SCF done       -218.226667419402          0.000947815543
C           0.16679825483863    0.27917012204559    2.13038678685042
C          -0.70911581612642    0.87475392563281    2.99869447859968
C          -0.58362208708410    0.81070037931718    4.40054872360622
N          -0.50727559883576    0.79773602511549    5.54604063101846
C          -1.88155267682592    1.54078056981745    2.58509494436281
N          -2.88060541292299    2.03176967213526    2.30449122708163
C           1.22766952375206   -0.65231112502330    2.49455124368168
C           1.57001334161665   -1.41980862673061    1.34222538190182
C           2.51357465784851   -2.40473877005733    1.39234375660175
C           3.17942732991098   -2.66074249002822    2.61229573552975
C           2.85465687681891   -1.88472177595482    3.76245079216847
C           1.86456052914509   -0.87848950468771    3.68503780018750
C           3.53513975741313   -2.14294810923426    4.96978199442896
C           4.48872506224618   -3.12154533739444    5.04078707853481
C           4.80580909996554   -3.88700665663626    3.90867247128872
C           4.16442701230279   -3.66216076333106    2.72096535531563
C           0.77880413175781   -0.95071332988130    0.18888216569548
O           0.76132242130595   -1.39683851641499   -0.93568441488186
C           0.04430443448660    0.24735017330764    0.68454546038377
C          -0.49338902432737    1.13087154663682   -0.18921152627561
C          -0.88897826516371    2.49237064584410    0.06239430025198
C          -1.96274495148522    3.03909681024490   -0.65582559345054
C          -2.35341398478878    4.33109825887822   -0.40477023677136
C          -1.62230831570006    5.13086738767149    0.49313046933394
C          -0.53306401314583    4.61055330538712    1.17930831210258
C          -0.18835136668155    3.29194418854209    0.97606556877883
C          -2.16947118616913    6.46831666219255    0.47068215687314
C          -3.23845351454742    6.49743307820991   -0.43985057526764
C          -3.50285703622818    5.11392479401281   -0.99329562238446
C          -3.52119157908210    5.08552889515832   -2.52709726304371
C          -2.22601038608618    5.61661497956370   -3.13088596099963
C          -4.85393079099286    4.64709599995660   -0.39699469602896
C          -5.17314129426500    3.16815289585620   -0.56794157106567
C          -3.91329413803262    7.66534482214467   -0.70000162449386
C          -3.52762878569334    8.84090345627209   -0.03968196926641
C          -2.46735948895106    8.79493087483703    0.87655739049360
C          -1.78650831368851    7.62501288213976    1.13588524799847
C          -4.19115155050037   10.09688158230640   -0.29835278670797
S          -3.53723778474789   11.57209614032842    0.34103254781876
C          -4.77991324295422   12.55082416164976   -0.37862748644096
C          -5.65527492794634   11.75096990212569   -1.08782948689250
C          -5.33567548589257   10.36510145846388   -1.02377856858393
O          -6.08967370803320    9.36692327108376   -1.58225707974283
C          -7.48728096164201    9.59540974679163   -1.58793326365134
C          -7.94425986846577   10.41015553422976   -2.80055759597565
C          -7.00300497582670   11.59909565817356   -3.01159168172657
O          -6.69748274378558   12.27477175222188   -1.80509898767283
C          -4.76031647364101   13.98181467705160   -0.19233244179474
C          -3.68102209418651   14.56686382470213    0.48801459667577
C          -3.64173318930189   15.92602201756239    0.66223972093621
C          -4.67138950116886   16.74286553897818    0.15849228403658
C          -5.74807439120668   16.17317406597134   -0.50737607225723
C          -5.79006220228973   14.80338699905762   -0.67250416995786
C          -4.36103400447717   18.11719566084258    0.47590275115700
C          -3.14365354597237   18.14959230106229    1.18123080818587
C          -2.59548344797261   16.75523780009286    1.36540235331575
C          -2.49973509131849   16.38937890184795    2.85909386096315
C          -3.83481401895141   16.50525541859869    3.58497792120256
C          -1.20940358039686   16.60470357759037    0.71258936487260
C          -1.21758698632815   16.93297432826301   -0.77558468809464
C          -2.60010339171832   19.33198320968504    1.61057789534263
C          -3.26871981484297   20.53980655067453    1.33976543721306
C          -4.49021740094047   20.49036913755653    0.63145260997930
C          -5.03656636692585   19.30238162505841    0.20202206225088
C          -2.81224263842252   21.84011712798200    1.72263749131706
C          -1.72064547908507   22.32419865425916    2.38847922504348
C          -1.53102198639075   23.75596313870264    2.61983551902712
C          -2.35507152524577   24.78417360758927    2.23888407646763
C          -2.08922951932096   26.14642241591497    2.49769057110483
N          -1.94832165064828   27.27344717804169    2.66599783608051
C          -3.57884152451242   24.69613344822291    1.54108727373124
N          -4.58059581248887   24.75579439698001    0.97995421779611
C          -0.27753942173063   23.93904802672382    3.34248440901818
C           0.30468016103296   22.66127122736536    3.55771583612456
C          -0.56020918776025   21.61628335107380    2.98611567294416
O          -0.31851181126362   20.42606876418763    3.02904992732481
C           1.49394047529116   22.50229294484985    4.20834962056882
C           2.17289665510427   23.64391459648771    4.68721007837858
C           1.59640692015113   24.93016036341717    4.48132377548200
C           0.36308834588702   25.06023765055192    3.80259785077432
C           2.28018971085414   26.06447324563538    4.96496870039884
C           3.47526928377347   25.93593490710964    5.61856893758094
C           4.04241807064607   24.66839686540530    5.81904411557493
C           3.40476887186540   23.54670225354489    5.36351081343344
H           2.75225722352905   -2.98110053484859    0.51078125684127
H           1.64104803201523   -0.30053321482342    4.56849738987686
H           3.28503405435417   -1.55322257766692    5.83955747192226
H           5.00420861392465   -3.31159906881416    5.97032347979293
H           5.56085022381969   -4.65542566715999    3.98235378857773
H           4.40399117797968   -4.24876252671134    1.84602568930607
H          -0.57715860338098    0.78237756681879   -1.21417876201580
H          -2.48170213853643    2.42154178043703   -1.37285221689777
H           0.03735500059779    5.22733486114730    1.85733038875807
H           0.66894301849264    2.87728050813447    1.48771424337211
H          -4.35961610839254    5.69054241541288   -2.87837936770585
H          -3.68178991562639    4.06141721285481   -2.86660192426684
H          -2.05603973933898    6.64722149331650   -2.82681959361961
H          -2.27447214262639    5.58085734845773   -4.21693254133946
H          -1.37706065552581    5.01967009281615   -2.80427285590800
H          -5.64115621436413    5.24871371744818   -0.85753114653161
H          -4.84447271693447    4.87410636872789    0.67163974304339
H          -5.14361489755274    2.86934158439836   -1.61291182673415
H          -6.17449982003648    2.97246105761279   -0.19055935046484
H          -4.47608936770143    2.55878416898232    0.00062421753528
H          -4.72195048206270    7.69378603219622   -1.41004149254683
H          -2.18071893994811    9.70443121093593    1.38455765747377
H          -0.96969857823731    7.61316952481123    1.84160267938119
H          -7.78232039224448   10.10534079343075   -0.66270352827621
H          -7.94627949457302    8.60332387127778   -1.60023942087635
H          -8.96295131433096   10.75444741620549   -2.62202860135747
H          -7.93192900601058    9.79588459693908   -3.70110780038687
H          -7.47327156743553   12.34750680791053   -3.65474412890122
H          -6.07544572669387   11.26057608858012   -3.48970911716493
H          -2.88969263272543   13.93683664825946    0.86777827827266
H          -6.54803092191828   16.78990370554475   -0.88930652673318
H          -6.62669464821185   14.35126132236082   -1.17732988171560
H          -1.77162695221059   17.05213672426608    3.33031090479114
H          -2.12982055286033   15.36547948405886    2.94368481258824
H          -4.21356963475580   17.52382276982311    3.53447565290465
H          -3.71466902947806   16.23591659881242    4.63175397901885
H          -4.57417466817500   15.84135326263391    3.14184535261532
H          -0.86598229612768   15.57803048889171    0.85545301495768
H          -0.51192223151559   17.26839572064549    1.22680081907604
H          -1.89140789102838   16.26903319130301   -1.31306160457961
H          -0.21826519059709   16.81712392119864   -1.18882029817255
H          -1.54062441190238   17.95841329808421   -0.94175302646782
H          -1.66982718298139   19.34147177897560    2.15071154727957
H          -5.00721358674761   21.41625819476603    0.42149620374002
H          -5.97119556267279   19.29279280439972   -0.33849556022558
H          -3.50305537516546   22.61034494461949    1.39938851812484
H           1.90945524948854   21.51628054226167    4.35530208879087
H          -0.04100215202685   26.05004943019325    3.66556167343880
H           1.84024322976485   27.03843297360199    4.80778630476018
H           3.99112260093733   26.81089429292700    5.98496680314483
H           4.98672642746187   24.58556048975288    6.33627064880521
H           3.83540629749736   22.56758813254844    5.51525169279854
