156
 SCF done       -248.903824583973          0.000529747906
C          -5.09935716366211   11.02242263841705   13.54184386522694
C          -4.10396358101727   11.92725443058697   13.26602830217273
C          -2.97517749253128   12.12922354376437   14.08360998906047
N          -2.01730353954308   12.31120815408074   14.69068894192718
C          -4.12972572485763   12.81457733761131   12.17316840479107
N          -4.11662515933159   13.57942870758580   11.31673601745435
C          -5.24604901467255   10.30878631605888   14.80864589726011
C          -6.59482221648437    9.86321781904956   14.92172956844176
C          -7.04425592238290    9.20636421143336   16.02982782541173
C          -6.14534293027500    8.94785721467180   17.08968828241672
C          -4.79005024604119    9.37042672379180   16.97371267222249
C          -4.35502972498619   10.05769598283390   15.81639742966790
C          -3.90142719819574    9.09817234265756   18.03331844290289
C          -4.33000912835451    8.44506194545179   19.15681824254601
C          -5.66563998407935    8.03249652803247   19.27159464129927
C          -6.55374829527528    8.27842858752663   18.25978281799396
C          -7.32583819986848   10.21700489447537   13.69137231092417
O          -8.49726359224647   10.03689499091926   13.44363991188156
C          -6.30346445308478   10.79805357147509   12.77717194789675
C          -6.62106854235527   10.92070364768330   11.45571991667354
C          -5.79524116535278   11.07671872605023   10.32229528852028
S          -6.55363001044548   11.50771858682139    8.79790980881712
C          -4.44168990358694   10.87064462447449   10.16834727206158
C          -3.97219127465053   11.07683685056491    8.85819261092989
C          -2.63869161043232   10.98283841320050    8.37342600431109
C          -1.56363617778754   10.61716315858952    9.36157238917341
C          -1.47543339105623    9.09976393581065    9.54052812396915
C          -2.38214939410248   11.20574979244265    7.03941588108190
C          -0.99709279616003   11.12315324157866    6.45508653740983
C          -0.34306537308931   12.50610558756653    6.41390788997176
C          -5.02706394550770   11.43872633768828    7.99127775602239
C          -4.76184042332809   11.68470601126235    6.65694356947208
S          -5.88939693742757   12.12416874821558    5.41695114509760
C          -3.44501172016219   11.57051061103567    6.16758636879862
C          -3.39110035039252   11.85271419462568    4.78420002700711
C          -4.60590940072378   12.16176397976634    4.22626364197108
C          -4.94672635561331   12.46122400662101    2.87379192256019
C          -4.06253371998350   12.57190453487275    1.86004721763413
C          -4.37657380225307   12.80772294800123    0.47364334696775
C          -5.66593851520420   12.93367110783253    0.00913520724938
C          -5.92221320494170   13.08557039931091   -1.37039533953017
C          -7.10715894055915   13.18735277408758   -2.08750025230364
C          -8.52629213773347   13.24245477345598   -1.61837810133491
C          -9.05843218472608   11.87100211056340   -1.15215365719007
N          -8.32918408756440   11.35536298999078   -0.00762461058870
C          -8.74250631662170   14.32237557725655   -0.54695203917527
N          -8.40480133219282   15.62146414944116   -1.10887947834745
C          -6.73856383729362   13.26490138346622   -3.48383088482014
C          -7.49160082827112   13.34010714925379   -4.59571112466447
C          -6.88595158451608   13.34703829649260   -5.95397670810829
C          -5.38519341489831   13.38401860324299   -5.96783026650062
C          -4.64765529772263   13.31955552190036   -4.84566003011151
C          -5.27338589335426   13.23231102427076   -3.57828434795481
C          -4.78941882858496   13.12046341416210   -2.29343664484010
C          -3.47150138291350   13.02544174695337   -1.78503559152735
C          -3.27954536955128   12.87422276693283   -0.45300377480018
C          -7.43354655720225   14.43864303031232   -6.83541632021332
C          -7.99157168027245   15.56190705128501   -6.37987731711512
C          -8.53774821696442   16.59861683971351   -7.21382468740475
S          -9.19036921823314   18.03012010567301   -6.45332144585181
C          -8.67079123349299   16.63966078488086   -8.57378626791526
C          -9.30396504699943   17.81009778864642   -9.05862544987202
C          -9.60626978034831   18.15543577380231  -10.40491423553724
C          -9.15770208598893   17.19112252888219  -11.47019252415146
C          -7.66836655717451   17.36337069975356  -11.77680801931480
C         -10.25563686255060   19.34105098048879  -10.67334420685050
C         -10.60353513579906   19.81006038352493  -12.06036983528930
C          -9.57493989210353   20.81752374089419  -12.57897926852070
C          -9.64832287032565   18.66953845747754   -7.99864397538797
C         -10.29079395540547   19.86634265313976   -8.26549081985059
S         -10.80242430491590   21.07096006826066   -7.13362951837672
C         -10.60450137805376   20.20702192481722   -9.59887195157610
C         -11.26677418248445   21.44988822678826   -9.66133149634537
C         -11.45490057818469   22.04885398579033   -8.43677315990762
C         -12.07955773380135   23.28417321661345   -8.13859883219266
C         -12.64999010041675   24.10356105827784   -9.06431313471890
C         -13.26367088644731   25.32072627709211   -8.70716052179003
C         -13.86953802741677   26.17441528953441   -9.59059721149062
C         -14.51526388515360   27.43317413613876   -9.27620802422305
C         -14.60572344597078   28.03356236002820   -8.04528857525264
C         -15.24692980758394   29.26757834969833   -7.81196591542660
N         -15.75073272656041   30.26566973194805   -7.54924676988696
C         -14.07730600257113   27.52922479471721   -6.83954433499695
N         -13.67857848940274   27.19559809881477   -5.81492065976662
C         -15.05840808600016   27.97787653186130  -10.51732995757518
C         -14.74179149297531   27.08694185329587  -11.58146113174079
C         -13.98536710718473   25.93910977481675  -11.05043713919772
O         -13.55642376095554   25.00180966918949  -11.69502306054365
C         -15.12224983810412   27.33352575142333  -12.86856148199549
C         -15.85293140025633   28.50754574260098  -13.15858805306008
C         -16.17509958243240   29.40443740298331  -12.10012848700610
C         -15.76697640122651   29.12115274450212  -10.77612404671013
C         -16.90459875626118   30.57298270703393  -12.39943214499351
C         -17.29732114289300   30.84433866281101  -13.68179744665405
C         -16.97961796150481   29.96006447517527  -14.72334024866402
C         -16.27289926609527   28.81648554876436  -14.46711054310833
H          -8.07386625349990    8.88802822979169   16.09903177055588
H          -3.32157213747573   10.36120724732638   15.75391506933212
H          -2.87466945743590    9.42132068144062   17.94212288862730
H          -3.64183136655913    8.24380999130411   19.96422674794479
H          -5.98744118874543    7.51883863559355   20.16527196593395
H          -7.58367437918871    7.96285236196835   18.34209556617612
H          -7.68093001140212   10.80639079417961   11.24469554504934
H          -3.82279139695307   10.52461037045387   10.97605437186218
H          -1.78555011256834   11.08717527649340   10.32101897012542
H          -0.59782831639523   11.00083713782206    9.03670239852474
H          -2.42748590468187    8.69642033988099    9.87852096064344
H          -0.71190768209332    8.84851836514336   10.27320436827465
H          -1.22285808154622    8.61949152588046    8.59754654383330
H          -1.05674013627305   10.71953615652864    5.44303712545842
H          -0.37536026756989   10.44257943050643    7.03508547915374
H          -0.93893270120208   13.19171100768874    5.81599533365486
H           0.65348421003102   12.44240864061544    5.98250846605780
H          -0.26181926813483   12.91795855581626    7.41717345018144
H          -2.48735317478538   11.82508908631905    4.20458304966608
H          -6.00405761307175   12.58858565446286    2.68959279702340
H          -3.00880340835407   12.45681215075261    2.07953391410026
H          -6.49759701831406   12.87860668543341    0.69108177693925
H          -9.14239745665763   13.53713999816583   -2.47403226353168
H          -9.03672442939137   11.18664380979200   -2.01847203820503
H         -10.10219036471871   11.99901087008948   -0.85181302997564
H          -7.40888077746975   11.03990153492634   -0.29578972934740
H          -8.81727719382114   10.56113448640392    0.39064076021453
H          -8.17403731507267   14.06950431938876    0.35675442513678
H          -9.80310923959994   14.34433955781625   -0.28012192599038
H          -7.42076437313136   15.63976741885512   -1.36004282733767
H          -8.56335553611687   16.35266552936102   -0.42433196544876
H          -8.57237421706989   13.36645567160092   -4.55811773409786
H          -7.18662380043156   12.39362767741848   -6.42543064461671
H          -4.92307026571159   13.45467387842399   -6.94073338272117
H          -3.56828051776274   13.33451873061578   -4.89701905729562
H          -2.63548161740158   13.06482737339274   -2.46833251689248
H          -2.27792939600112   12.79126193048200   -0.05492820005811
H          -7.31928376894985   14.27280873238437   -7.89711801435374
H          -8.06877498337189   15.73153358322074   -5.31389700343454
H          -8.33021138744278   15.84145770859664   -9.20623034332864
H          -9.72555955390483   17.33035540206508  -12.38857117409149
H          -9.34168446321053   16.17050947671549  -11.12923948880697
H          -7.47327670154643   18.36059018612053  -12.16300565293251
H          -7.34979728215713   16.63735550953258  -12.52150316496712
H          -7.07146405649396   17.22670340427087  -10.87806735882899
H         -11.58886927405808   20.27878518311286  -12.04273980500974
H         -10.65930636534342   18.97239454435614  -12.75391859327280
H          -9.50081551195916   21.67158839083226  -11.91013747268143
H          -9.86230825553564   21.17343351734618  -13.56548374846499
H          -8.59270610305515   20.35696531517660  -12.65076059085998
H         -11.60223743135790   21.90849200566100  -10.57255631063538
H         -12.09844831570020   23.57538680512769   -7.09532796856478
H         -12.64908696738828   23.83220093653566  -10.10810847103969
H         -13.24939541316194   25.57975532310651   -7.65624631479748
H         -14.86861091914686   26.64033236172656  -13.65703461346888
H         -16.02910106559638   29.82076004490897   -9.99865486796361
H         -17.14688933436646   31.25080269044062  -11.59399027209619
H         -17.85529549910751   31.74248070526912  -13.90080634897431
H         -17.29752465116657   30.18952616288952  -15.72955184442507
H         -16.02530206680212   28.13151403172701  -15.26507535459402
