133
 SCF done       -214.709185154480          0.000498503161
C           1.61048929378845    4.26710680205858    7.28693099178685
C           0.95824178909166    5.44135134849647    7.55445513331565
C           0.31485493940315    5.71700586167227    8.77763199319927
N          -0.24247535148893    5.97483063715497    9.74758757307217
C           0.93471089345487    6.54203026737918    6.67342022570344
N           0.94464550345312    7.49188067126254    6.02893238565004
C           1.90251883733129    3.21829651349735    8.25726064342057
C           2.98320076340652    2.43080987436896    7.76158911983259
C           3.50367256378986    1.39414973883020    8.48096742905152
C           2.95157472955038    1.08586741791063    9.74466069997426
C           1.86040337390243    1.85820691958446   10.23797861331528
C           1.34546411356886    2.93079317689431    9.47440300527821
C           1.31492817569166    1.53532493951662   11.49720573753694
C           1.82356229214443    0.50274411754683   12.23679179771700
C           2.89901215298693   -0.25597352560779   11.75105331458504
C           3.45086529120939    0.02951454837303   10.53184696190011
C           3.37056646716034    2.91891331278674    6.42533690255605
O           4.27787652659252    2.53442637809265    5.72347462696640
C           2.35929015528406    3.95951631298872    6.08227854767903
C           2.21678102134730    4.36666369078700    4.79914774389216
C           1.10699542162882    5.06008245777997    4.19830159818470
C           1.34907436521702    5.94165936024024    3.13423315260308
C           0.29898809840643    6.61559333754440    2.56137065134291
C          -1.01216381611313    6.41516170093737    3.03263047716287
C          -1.26774543379196    5.50463831111288    4.04943567700898
C          -0.20893335140490    4.83764588409549    4.62665193371088
C          -1.90280049573661    7.29601318328663    2.31195305371434
C          -1.14136941783490    8.04929941607050    1.40296491322760
C           0.31322328241198    7.63584403316582    1.44721516778515
C           1.23993728500305    8.81917175149325    1.76493266159160
C           0.85191427779989    9.53072367454321    3.05614778559835
C           0.64282478068325    7.00041089365744    0.07547614856794
C           2.00126725119274    6.32114954769174   -0.03537972902924
C          -1.73656333436408    8.98209474831302    0.59144176946786
C          -3.12275267755713    9.18134109017719    0.67359933968030
C          -3.87130483590014    8.42435014716777    1.58565335030710
C          -3.27503636101357    7.48893156676739    2.40378485275100
C          -3.77152297399070   10.13913690630899   -0.18083268156271
S          -5.51493597144400   10.30112350208699   -0.20527844337383
C          -5.51124271130251   11.53671836364588   -1.43101600692695
C          -4.20244732116265   11.81460495506752   -1.79264153757857
C          -3.24119037889503   11.02504656664550   -1.08919708081821
S          -1.64671498611717   11.45893742537266   -1.62832964406487
C          -2.40245072341894   12.62187045556458   -2.71169286903496
N          -3.67342742831406   12.69105801820245   -2.69057402757797
C          -6.72868539950099   12.07715229658259   -1.92247969454315
C          -6.77305455963653   13.01596212466546   -2.89276915165004
C          -7.95239275498106   13.58910288430057   -3.48794187693026
C          -7.77826021394824   14.52253472562046   -4.52474060642184
C          -8.87087699986039   15.06969403146057   -5.15074756701827
C         -10.16978490834365   14.73107870754647   -4.72465447061814
C         -10.35772686014297   13.81862518703036   -3.69434566140052
C          -9.25510557096320   13.24996919011621   -3.09328793313257
C         -11.12343187281358   15.49382788579984   -5.49583550470161
C         -10.41616016533995   16.30989987386862   -6.39569177463901
C          -8.92857145055564   16.05684436587021   -6.29377902489844
C          -8.13569043293706   17.33854375649461   -6.00335477045261
C          -8.64853659982083   18.06815400299664   -4.76668481122378
C          -8.50623789679529   15.40633980063550   -7.63374610785304
C          -7.04858881450885   14.97833348802022   -7.73526429623173
C         -11.07691449733589   17.15263643387591   -7.25314552054362
C         -12.48034099484006   17.18359768113209   -7.23835565496544
C         -13.17424655565388   16.39722206487566   -6.30021948224341
C         -12.51228103501906   15.54775619018885   -5.44221488031521
C         -13.24949045817047   18.01402440705168   -8.11979420410629
C         -12.95376858577141   18.43074712366414   -9.38217169707179
C         -13.79156075870108   19.32932271355604  -10.16382902793155
C         -14.76146120390644   20.16526383206476   -9.67587620118293
C         -15.53024793804994   21.03365679690252  -10.47862369092488
N         -16.19416812706727   21.75482937393819  -11.07650816530492
C         -15.10806203147358   20.31023304903388   -8.31579080150444
N         -15.43665809603202   20.50626606184508   -7.23273164653886
C         -13.36088302967400   19.25514210261960  -11.55319108644157
C         -12.23010332362708   18.39506119504669  -11.62659772381213
C         -11.90399980179005   17.88115194357672  -10.28353258705698
O         -10.99459796173590   17.12395781132921  -10.01879345825668
C         -11.59594782370402   18.13382661707082  -12.80670033095874
C         -12.07381643108997   18.73457071586231  -13.99253350139304
C         -13.21032800226893   19.59143140010956  -13.92951035428438
C         -13.84679393373606   19.84151261633700  -12.69223861858191
C         -13.68139994934908   20.18193507287068  -15.11994959204719
C         -13.05986564425043   19.94109987928601  -16.31481456461445
C         -11.94002950089556   19.09819303431131  -16.37527249319442
C         -11.45753286622825   18.50803377988305  -15.23885795416937
H           4.32794259452234    0.81537231043406    8.09129386455404
H           0.51373671495698    3.49507013345309    9.86700880617516
H           0.48924347093310    2.12452612772057   11.86849540403823
H           1.40031274257464    0.26503599954590   13.20125351300169
H           3.28783306393588   -1.06760351325097   12.34768720446562
H           4.27911683473317   -0.55106433042637   10.15252174825115
H           3.02380268579441    4.07901761621912    4.13160350549037
H           2.36770898316274    6.11683535877146    2.82421919129176
H          -2.27647585106746    5.32944059196749    4.39188615460174
H          -0.39278851857102    4.11155108404374    5.40612538130620
H           1.20246911264525    9.52487133352167    0.93174160800132
H           2.26475210283006    8.45662066880880    1.85310100547672
H          -0.15842763867826    9.92818292484252    2.98730745289854
H           1.53317320907905   10.35749256761069    3.24347934063771
H           0.89635994730970    8.85084419559429    3.90310438220421
H           0.57626681623136    7.78976510700356   -0.67655225449398
H          -0.13481635243525    6.26527046405195   -0.14962080155675
H           2.80866594271040    7.00556274122646    0.21028874815873
H           2.14923386958586    5.97964383880077   -1.05780025930264
H           2.05735672425265    5.45583841327185    0.61926996361174
H          -1.14873634772325    9.55788687042344   -0.10625237099027
H          -4.93823281397437    8.58625562186531    1.64242233196064
H          -3.86821729377981    6.91787153730986    3.10176744252280
H          -1.78431904817153   13.22508799945837   -3.34737752362055
H          -7.62805213244245   11.67494323965284   -1.47822305430493
H          -5.82813209613144   13.36811248233137   -3.28529255406253
H          -6.77433905331569   14.80253648304659   -4.80698177778654
H         -11.35353386697000   13.55930150805293   -3.36659020900237
H          -9.40120284849416   12.53754189582447   -2.29647251385685
H          -8.20269792986718   17.99722892658517   -6.87147976774915
H          -7.08611454361433   17.08309530308531   -5.85329121710999
H          -9.68654923921960   18.36675317471412   -4.89607287196739
H          -8.05455955321696   18.96080240195719   -4.58400240118042
H          -8.58382642121886   17.42680044461072   -3.89012219567432
H          -8.73098305652916   16.11594611716201   -8.43212934605886
H          -9.14103373258309   14.53045591529046   -7.79159225281884
H          -6.37553070180756   15.81884228740756   -7.58810380503725
H          -6.86515809249707   14.57139147530488   -8.72739617513407
H          -6.81618733429139   14.20582179965218   -7.00724189260813
H         -10.53078547453617   17.80540739425737   -7.91212387531970
H         -14.25352744060597   16.44768390278085   -6.27765265359804
H         -13.06179600034818   14.93868947314070   -4.74028853996186
H         -14.22113340375364   18.29544071815232   -7.72842740723328
H         -10.73859453287059   17.47755930111120  -12.83420542508307
H         -14.70933764355284   20.48866321065768  -12.67880350347082
H         -14.54303628269332   20.83130549703819  -15.06818187072900
H         -13.42763787708328   20.39923415373008  -17.22074031961128
H         -11.46197132220053   18.91876661907607  -17.32674009790709
H         -10.59580339608434   17.85770009416743  -15.27889558231897
