138
 SCF done       -249.987606580047          0.000240958795
C           1.18364715145543    4.19452199819270    4.95434915098303
C           1.46209333848569    5.53002671343619    4.91049625593456
C           1.71993567078327    6.30369383886961    6.06243485051847
N           1.90744273641470    6.99612926952576    6.95863426782102
C           1.46922205100756    6.34663055957786    3.76082206377066
N           1.48369245476419    7.10805962383733    2.90183446823362
C           1.07338480888498    3.40018059331018    6.17003059560923
C           0.34728999304847    2.20712607316310    5.88486222055926
C           0.08993942570667    1.27552027719517    6.85048178876994
C           0.56748652513450    1.49281879998808    8.16166518054858
C           1.31660171770897    2.67160216117363    8.44618495385463
C           1.55931358910813    3.62255640179619    7.43024272953376
C           1.80420992847089    2.86522143972829    9.75492925413548
C           1.56079449516282    1.94525471983229   10.73747270693237
C           0.81871695756470    0.78765466798438   10.45746553235415
C           0.33305886096983    0.56657907287803    9.19770374429715
C           0.01117020103073    2.17256234830084    4.45415686532360
O          -0.65521039691220    1.36320770786434    3.85260086116958
C           0.73321171219137    3.34187535777926    3.85851412506987
C           0.98194163983923    3.36039373254383    2.53986012365048
C           1.86189143664401    4.25368378747411    1.79932837831128
C           3.22465072622680    4.42041214140970    2.10060206975723
C           3.90488269249562    3.59927066083882    3.12820978206476
O           3.41899131535644    3.29174194382097    4.20282874800023
C           5.24588206627790    3.11042003760728    2.76213073735815
C           5.69824096829313    2.88743513878617    1.48970666982032
S           7.25086034176180    2.17023175495362    1.46332377634070
C           7.30528566125323    2.14031617025371    3.18254036434562
C           6.18835839944132    2.66880951553723    3.74722401096699
C           5.98043542925951    2.74964874930257    5.22019704979341
O           6.15173038561613    1.77903880743094    5.92529054842634
C           5.60755623186660    4.07516890843015    5.76357251919371
C           5.10886415523876    4.13482403016044    7.06440850199598
C           4.78254243244134    5.35129543886414    7.63035309205883
C           4.94037615015467    6.52059355401919    6.90331743386505
C           5.43437160713092    6.46921326660930    5.60949803899254
C           5.77550379155818    5.25590657843680    5.04246680054240
C           3.96546383211149    5.33611228511427    1.35049600361087
C           3.39110890626854    6.06010208515518    0.33028058603373
C           2.05714886209147    5.84406280088756   -0.02080067045732
C           1.31871253282027    4.91878544206406    0.70519291815144
C           1.43977025253693    6.59354120572626   -1.11326855441116
C           2.09974470120880    6.78189651825866   -2.33834580560799
C           1.46457127857218    7.48627816839769   -3.40926008162063
N           2.12137544675608    7.66190432926653   -4.57914174367947
C           3.30934297277293    7.14998130865680   -4.70876858174572
C           3.91440812832390    6.40855878586052   -3.66676962865479
N           3.33023835662525    6.23910356600389   -2.51859413161130
C           0.16229750591258    8.02718074517293   -3.27947050983111
C          -0.46034607707438    7.90578633191000   -2.01552425781686
C           0.16039516570749    7.15742831683820   -0.96086824692638
N          -0.47633809675761    6.99738582371372    0.22321348929279
C          -1.63954440104540    7.54897111226482    0.38473426041075
C          -2.22843711297070    8.33405676439491   -0.63215151618794
N          -1.65332577824547    8.50215273426200   -1.78685909816678
C          -0.40843821474742    8.66408898866812   -4.43342511982665
C          -1.61700899298455    9.25074442844960   -4.51707242519966
C          -2.10869304503522    9.97076010473847   -5.67117742564767
C          -1.27239957319820   10.55933829979534   -6.64152770228310
C           0.19951519792307   10.70995934982089   -6.46250190784750
O           1.00441431865901   10.43121564818109   -7.32195733938345
C           0.59404191809506   11.28616941200354   -5.15528787963597
C           1.78641980188593   10.98949599343925   -4.56081321200325
S           1.93904166148635   11.69090226618272   -3.00949694180002
C           0.38963607436224   12.42563314059257   -3.15479417322009
C          -0.22016982859381   12.13219784505047   -4.33565363764475
C          -1.48490996215345   12.75993955969363   -4.80620955831276
O          -1.50243957708262   13.37139444896311   -5.85584996667466
C          -2.69193069498118   12.61211483428642   -3.96511473830564
C          -3.85915013744027   13.24156235634630   -4.40393091774654
C          -5.03616188133123   13.10887339436401   -3.69709735539180
C          -5.06462859789437   12.34553943561821   -2.54006298720548
C          -3.91080829810683   11.71809029006711   -2.09852237499763
C          -2.72784036667947   11.84275144639320   -2.80326584408566
C          -1.83860384930714   11.14750870855118   -7.76802240544092
C          -3.20583723043284   11.25646176147317   -7.91469608737126
C          -4.06059964217305   10.76609916337881   -6.91685700201598
C          -3.48426177080802   10.11220349009770   -5.82071478403114
C          -5.49088762964807   10.91827711813955   -6.87072338596250
C          -6.43150697706708   11.37724948702375   -7.73780777370846
C          -7.84760758006061   11.47467530168975   -7.37600787262404
C          -8.40363564419962   11.28237072388903   -6.13867338010754
C          -9.78237468939103   11.41967053567748   -5.86241531148718
N         -10.88435827140662   11.51207700557969   -5.55452814353394
C          -7.73739819878045   10.93973230296499   -4.94249459969859
N          -7.31061469038496   10.67223885105015   -3.90914289613845
C          -8.59299131549936   11.86150686038877   -8.56543390042433
C          -7.67337385687318   12.04770086538128   -9.63395982359239
C          -6.30405969582712   11.77351155002648   -9.16908187210902
O          -5.30606188984810   11.84195089044731   -9.85247176061283
C          -8.07838029003686   12.41932682331939  -10.88378630283109
C          -9.45387187308322   12.62461826369576  -11.12842314642898
C         -10.38454030039484   12.43366370178517  -10.06614833714333
C          -9.93387674173155   12.04966263786735   -8.78336133617253
C         -11.75673484403435   12.63538942594388  -10.32125519824254
C         -12.18976187108021   13.00905187522714  -11.56402618757265
C         -11.27215197443984   13.19823884568994  -12.60864429365085
C          -9.93348124273970   13.01028882850806  -12.39559541039570
H          -0.46379673635199    0.37862523874048    6.61488176910789
H           2.14340121196836    4.49836339832641    7.66349205930824
H           2.37098155054543    3.75990099053541    9.96671131279248
H           1.93814261755795    2.10340776243593   11.73679047072281
H           0.63569043754122    0.07188238213824   11.24494888901613
H          -0.23704258092074   -0.32383371131793    8.97601501169949
H           0.45646470840765    2.61343294887141    1.95113483973812
H           5.18616405452812    3.08041835184237    0.56742151209271
H           8.16742227461193    1.75057839435111    3.68602673428154
H           4.98429952946986    3.21042192371341    7.60881764942358
H           4.40571023889080    5.39631718329403    8.64156576476960
H           4.67321036891589    7.46948696077997    7.34202381992443
H           5.55802757678756    7.38058534476157    5.04318748147400
H           6.18969099165983    5.23013589285501    4.04452999583737
H           5.00130356608143    5.50708853330048    1.60353709302670
H           3.97029112699353    6.79659003379539   -0.20181882942817
H           0.28813383727211    4.73557877694278    0.44624561940562
H           3.81291256164341    7.32075627551667   -5.65069870519097
H           4.89208081139326    5.96135766400104   -3.78750131423611
H          -2.12407565600954    7.39827132637271    1.33975381385247
H          -3.17548013721876    8.83534494338563   -0.48355263200182
H           0.23869489573770    8.63497559138626   -5.30010096446916
H          -2.29802634773404    9.17822994503872   -3.68208745988434
H           2.55436776397858   10.35230808933341   -4.95213170427117
H           0.03658604228054   13.07073999000053   -2.37431522604231
H          -3.81253172786687   13.82816544474832   -5.30978181951298
H          -5.93493736356019   13.59695869720356   -4.04386877264274
H          -5.98713092913459   12.23158614742843   -1.99257415439965
H          -3.93450495715207   11.12397378061729   -1.19760776486706
H          -1.84262274271010   11.33059733114261   -2.45904356426421
H          -1.18103021386807   11.57081755206022   -8.51195618454979
H          -3.61102570123213   11.74161384536494   -8.78593973507595
H          -4.12604053139909    9.70401447828035   -5.05187738817549
H          -5.88569573249034   10.59368565879462   -5.91425164844041
H          -7.35586449004820   12.55382145001545  -11.67504952316196
H         -10.66663363573753   11.91019925014600   -8.00503741978228
H         -12.45899653326981   12.48958612974801   -9.51359003133306
H         -13.24240923295426   13.16138787730197  -11.74952013466393
H         -11.63180325088149   13.49328555511914  -13.58299178432801
H          -9.22240852578884   13.15400214652992  -13.19586904884523
