109
 SCF done       -201.088457842333          0.000930451336
C          -3.44550221775902    6.62618858099380   -2.86767365258269
C          -2.51151436480384    5.99731248578485   -3.64023512753900
C          -2.13223037945759    6.44548986844110   -4.92347186068613
N          -1.80050904603789    6.77533467450847   -5.97091788613342
C          -1.91165704187879    4.76697735329162   -3.29384859960646
N          -1.47672239259825    3.72272882582434   -3.10006157607518
C          -4.28897471207014    7.74255574088908   -3.27722311401634
C          -5.43390565429740    7.79125614906135   -2.42509745083352
C          -6.41849862409262    8.72305207574151   -2.59988213186817
C          -6.29528655968472    9.66822307771372   -3.64175077934424
C          -5.14494451344629    9.63575113167562   -4.48422075684761
C          -4.14458405036074    8.65686676461176   -4.28568939241690
C          -5.03040638558533   10.59192840424384   -5.51364413931899
C          -6.00409639603777   11.53421301746579   -5.70514206454865
C          -7.13645474153295   11.56459545357878   -4.87680971909183
C          -7.27945703920539   10.65138126861683   -3.86780367763935
C          -5.32762967283903    6.74155519421843   -1.40314299416292
O          -6.12366462769644    6.42209773873149   -0.55233084353224
C          -3.95475879875219    6.16538595573395   -1.58819928532272
C          -3.37070802174850    5.49950394822984   -0.56404115029537
C          -1.98402079892542    5.21486172767868   -0.40632461743160
N          -1.05753398424428    5.85207967807868   -1.10128715467560
C           0.12713201667934    5.37893215705271   -0.65991931183825
C          -0.05862259909320    4.37077191860035    0.39141705559211
C           1.24624149241283    3.85631689394397    0.84124381354320
O           1.48077494066569    3.02179627852711    1.68743033867217
C           2.19903276039335    4.60947237887922    0.00162049856956
C           1.46873259477913    5.53160299153859   -0.89852260634599
N           2.33499695112858    6.23045692446270   -1.67363698181736
C           3.52296735163249    5.80868059574486   -1.32315877787785
C           3.51108899323877    4.79366344916821   -0.28038981863899
C          -1.41687347977686    4.25570253398733    0.57168178069379
C          -2.17725094008665    3.42923045834393    1.44413635618934
C          -1.57987514280454    2.63378457843340    2.36605546124608
C          -2.19605816534801    1.78095805341040    3.31771771105385
S          -1.17454756780648    1.23363786084794    4.60737258821726
C          -2.47849726960693    0.35205570937507    5.34321883957071
C          -3.64834231737506    0.46434944154707    4.57907501295979
C          -3.48834338261046    1.27251783834606    3.44811309130837
C          -4.60101877431396    1.50322090436230    2.47474582259123
C          -5.69469890168174    0.45115116385154    2.64085757504269
C          -6.09869781024797    0.34293551504144    4.11678626856579
C          -7.31147098093674   -0.54799505864336    4.22056508557368
O          -7.34501435315660   -1.62877692328926    4.73023397178765
C          -4.92999233883560   -0.19830117808734    4.93717664033673
C          -2.30859610825087   -0.39583643324088    6.52733159076847
N          -3.24131128995566   -1.24726015824703    6.94654586416079
C          -2.73338279417831   -1.85352278776105    8.03129822653654
C          -1.37453039979861   -1.36970346792992    8.32949822478043
C          -0.84900537077534   -2.01170528473569    9.55255498908227
O           0.20780651600585   -1.82098400839994   10.10801427132040
C          -1.95061437843965   -2.91484285195630    9.93072021661054
C          -3.07815629442563   -2.78464441976060    8.98263144992032
N          -4.10285886360549   -3.59119445998337    9.34443778123006
C          -3.69328423379136   -4.19806387575250   10.43356327270419
C          -2.36347565378367   -3.81694098411214   10.85911308876883
C          -1.09860799996269   -0.41039621883946    7.39554175658953
C           0.03287329907435    0.44657629590808    7.26571600596574
C           1.29906916262150    0.12777876281203    7.62503835241476
C           2.34433870120396    1.05680234820486    7.38160684621674
C           3.67731390950251    0.80978565606199    7.50223244246715
C           4.75619032624147    1.74815231474022    7.24178059833660
C           4.64011352599170    3.01481288166567    6.73005876506770
C           5.73525111617342    3.86445443169395    6.46556756472820
N           6.57668093571882    4.60731912033674    6.22334630029415
C           3.43651395142455    3.65935156752532    6.37357161073937
N           2.51044987524741    4.26241350372379    6.05937873054999
C           6.00955669170140    1.08800826119957    7.58765725254415
C           5.72683507023923   -0.24532823130955    8.00113995061504
C           4.27414338947640   -0.48749040921603    7.92693854539257
O           3.70059048242178   -1.53207302747629    8.13831801890957
C           6.71373736322073   -1.10674960651907    8.38409936344392
C           8.05614060612705   -0.66631251002597    8.37317525140794
C           8.34797189782947    0.66655073354536    7.96261777159249
C           7.30476873305597    1.53601706467022    7.57160844842763
C           9.69115310908818    1.09558470685222    7.95299475847389
C          10.69865208701878    0.25014916797154    8.32977468046425
C          10.41001801622258   -1.06188419525388    8.73471109179438
C           9.11714621769208   -1.51012829843120    8.75616694496303
H          -7.27967096677886    8.74065788849112   -1.94846897697296
H          -3.27857833974177    8.65996658499706   -4.92888965738108
H          -4.15851313854200   10.56298865534612   -6.15018544304085
H          -5.90730390662057   12.26207870001619   -6.49651756121430
H          -7.89428989519373   12.31549314918355   -5.04220483232073
H          -8.14887027513028   10.67002868414224   -3.22718516725259
H          -4.02541381543899    5.23725960860002    0.25991151846618
H           4.40342459756207    6.21083684287039   -1.79361394969335
H           4.37781940273704    4.32567768308072    0.14244270069926
H          -3.25128991893061    3.48567974392643    1.36339721561128
H          -0.49842453986884    2.66499621682579    2.43230228257601
H          -4.21148888448315    1.46904086137263    1.45477888197804
H          -5.02632619714098    2.49860084266328    2.64144369379972
H          -5.32551801738382   -0.51929767160803    2.30405625613226
H          -6.55615851882682    0.71974064444883    2.02689300502807
H          -6.38678751555179    1.33959112074182    4.47078010744409
H          -8.20844211619003   -0.11273488463305    3.73388184559936
H          -4.83581030083109   -1.27602607822527    4.77190237774927
H          -5.11691436368317   -0.09077660663469    6.00720561872545
H          -4.33059554562676   -4.90959260831087   10.92941251797878
H          -1.85256184784070   -4.19219019949937   11.72358978568517
H          -0.14559423138536    1.41969083708552    6.82337439487813
H           1.53732004190218   -0.83563282502767    8.05098055872819
H           2.03009135402853    2.03926923052382    7.05097747797401
H           6.47173707138838   -2.11292972221074    8.69273826502019
H           7.55919894767568    2.53967106589549    7.27002021689190
H           9.90800077470156    2.10648564304569    7.63989262211443
H          11.72429244255159    0.58753774550006    8.31780795940847
H          11.21751318915100   -1.71546115568251    9.02933898169312
H           8.88883986108181   -2.51922918541692    9.06677483611636
