136
 SCF done       -214.817273367372          0.000612754257
C           0.76521307861631    1.27683776155938    2.69221123932291
C          -0.54618173268292    1.58131001680059    2.94726173318058
C          -1.57113600175414    0.61806398762343    3.02508789794062
N          -2.43921035548841   -0.13163302322388    3.07847541544092
C          -0.99797103939006    2.88066952012594    3.25635247320534
N          -1.40430556565465    3.90260068624129    3.58576723180028
C           1.33463228725320   -0.06473596222561    2.65164167818572
C           2.74162323019984    0.03508987277264    2.86184454758393
C           3.53801190508687   -1.07214406885726    2.91290732497491
C           2.95607150988397   -2.34907645704814    2.74447116114584
C           1.55305920203609   -2.45392040639555    2.51928498211773
C           0.75094545463676   -1.29050971109514    2.47667787260634
C           0.98657245652297   -3.73333836926076    2.34811015503300
C           1.76559316010391   -4.85685111317783    2.40032027010941
C           3.14672423341362   -4.75289397994407    2.62301787028513
C           3.72894916306982   -3.52600602288098    2.79132783520660
C           3.11824690168659    1.45656835661170    2.98383358633564
O           4.20971474620178    1.92141515957928    3.22233038130643
C           1.87167192695507    2.21508264671072    2.68467441169876
C           1.92477820725769    3.53121121408496    2.36831467044710
C           0.92096449317454    4.31110402658109    1.69237285108118
C           0.76599544848875    5.66768164359191    2.01514186242025
C          -0.20988826246418    6.40157767325545    1.38813176743385
C          -0.97242014121993    5.82931121918349    0.35292434791158
C          -0.79672818410056    4.49844253959794   -0.00291245296590
C           0.12724679454641    3.74352437427073    0.68588742736304
C          -1.82487956557450    6.84920526120463   -0.21092661260826
C          -1.60442288388243    8.05049972656780    0.48303389827232
C          -0.62286903667368    7.83672355020558    1.61578127297455
C          -1.42068396381785    7.98003426932440    2.93543613577224
C          -0.70891736916728    7.49850081830814    4.19229927243182
C           0.56294761465804    8.80920544643100    1.56129228750726
C           1.29740709229659    8.75070169201511    0.22670682327320
C          -2.27044818701831    9.19787950234294    0.12741943333005
C          -3.17314794123615    9.17335280763561   -0.94763552372382
C          -3.38187453192214    7.96453551764963   -1.62804405047662
C          -2.72048762333406    6.80948668485077   -1.27095872878261
C          -3.88230402103455   10.36051805055191   -1.36036792125548
N          -3.99179052835544   11.47454535820860   -0.55352946749983
C          -4.72286164545155   12.41645560934421   -1.20859255239366
C          -5.26117944232793   13.69912325356877   -1.10782361823321
C          -5.92172597281204   13.93718028897568   -2.31495262076056
N          -5.78578577458564   12.83123215542204   -3.13244799847090
C          -5.06097332831058   11.89021843944249   -2.47470399362869
C          -4.53649110996463   10.60005316606989   -2.56645321113253
C          -6.67176654901122   15.06238505197800   -2.75792796215241
C          -6.87770220523343   16.19441662024397   -2.05227400998900
C          -7.67465255799395   17.32480955673111   -2.45747734977549
C          -7.78901872762550   18.41397303045333   -1.57576888110101
C          -8.57794345903478   19.48661575436634   -1.90642358687956
C          -9.27476300744444   19.51096016361351   -3.12783411369963
C          -9.15593716016816   18.45275854362561   -4.01925698995883
C          -8.36348608230693   17.37774081998836   -3.67937111523858
C         -10.04816078164989   20.72755386575688   -3.19577096353875
C          -9.82719535116514   21.46435763586410   -2.01548364563402
C          -8.85992425459179   20.73897021518927   -1.10899151648310
C          -9.50624483680176   20.40885193515134    0.24902304849200
C         -10.78177350206926   19.58613003326726    0.11202469668327
C          -7.57736791926813   21.56187756108334   -0.88414006145599
C          -6.88067943471656   21.94080670103820   -2.18538505762459
C         -10.45981995702103   22.66271301608694   -1.81696360888763
C         -11.37580902690934   23.13204612311138   -2.77852484703822
C         -11.55852535102625   22.40591275295596   -3.96471838475811
C         -10.89669169196787   21.21606834496644   -4.18084632760189
C         -12.05343568191005   24.36898954127936   -2.51606136101656
C         -13.30972196398575   24.73801142155971   -2.89010087003624
C         -13.89826206147802   26.04459661810019   -2.64646726345908
C         -13.21820948618250   27.19933464023714   -2.35720572012523
C         -13.83740136266716   28.45030622052108   -2.15802550871745
N         -14.28208816325244   29.49405599550569   -1.98025206295296
C         -11.81634490111325   27.31288375784223   -2.25119313254544
N         -10.68545187881973   27.49479766504566   -2.16468844674615
C         -15.33681875353409   25.93614873623945   -2.84861326754195
C         -15.63113936123353   24.61345248551071   -3.28269337274499
C         -14.38619757707706   23.82559819931247   -3.36305829351128
O         -14.30227349464148   22.65971880979486   -3.68334186395372
C         -16.90579083701454   24.20994818857497   -3.55612672597786
C         -17.96699004129474   25.13031692253866   -3.40425612612353
C         -17.68221911207250   26.45423663563701   -2.96212515483366
C         -16.35106614366580   26.84276892217908   -2.68676421965812
C         -18.74980483275220   27.36168481561819   -2.80618725058878
C         -20.03649950664333   26.98253629917462   -3.07575015778650
C         -20.31535926138132   25.67920913788406   -3.51320698936764
C         -19.30255225478555   24.77318282094212   -3.67436138274337
H           4.60053817339071   -0.97659503430685    3.08075259842664
H          -0.30770466641193   -1.39577686258620    2.29630511001621
H          -0.07786652846354   -3.80819559536000    2.18014949369854
H           1.32156319784039   -5.83253161307153    2.27100963634585
H           3.74691024338209   -5.64971589522403    2.66048575188378
H           4.79201115372418   -3.43990846369248    2.96306857460668
H           2.85907238995289    4.03318580084985    2.60005801076980
H           1.39508408331736    6.09865689622230    2.77879703642513
H          -1.37233911712564    4.06150248016005   -0.80498992219323
H           0.28527434243901    2.70924092142427    0.41353151701110
H          -2.34828784695698    7.41258841673286    2.82915705097542
H          -1.68631732388490    9.03431364995268    3.04799030511185
H          -0.56960150666373    6.42157850028199    4.16240475788745
H          -1.31982980594265    7.73354044132988    5.06121702649703
H           0.25558981826372    7.98434950076941    4.31811641160870
H           1.26029952579531    8.56938230547081    2.36481716316676
H           0.19690623887272    9.82432463533981    1.73005648317411
H           1.68140483721480    7.74927651306985    0.04508401328823
H           2.13386232694628    9.44594968951913    0.22620244198654
H           0.62985295874390    9.01351144676124   -0.59109365555966
H          -2.07546514715992   10.12012980396855    0.65548252279020
H          -4.08862968877511    7.94030782575463   -2.44216017606405
H          -2.89921957759239    5.88939796077779   -1.80688898738183
H          -3.66188124626728   11.53106269191728    0.39346133964676
H          -5.19791298243177   14.37736564140614   -0.28147378744282
H          -6.17406654540208   12.75506293041331   -4.05658113511058
H          -4.59436826576072    9.93041599035786   -3.40029991979570
H          -7.10586812548753   14.95698183285642   -3.74390210578912
H          -6.42339225065512   16.27655001315530   -1.07419419530338
H          -7.25749595315304   18.38812797379099   -0.63476804622018
H          -9.68283711663205   18.46726812606599   -4.96181710410915
H          -8.28106311403575   16.55470822094493   -4.37205587341830
H          -9.73117728930797   21.34422964118085    0.76593547998144
H          -8.78354335094313   19.85874878051176    0.85549749829657
H         -11.52408134991074   20.12102110131395   -0.47631283282931
H         -11.20270766834689   19.38213476724343    1.09398881336765
H         -10.57559922546975   18.63723698505011   -0.37824372236571
H          -6.89362295298775   20.97850174347196   -0.26366434630491
H          -7.83592565845355   22.46940699981097   -0.33455814171555
H          -6.60173985374876   21.05083217505799   -2.74545384371253
H          -5.97944980683914   22.51152328872864   -1.97383909073041
H          -7.53331390530373   22.54822210580051   -2.80847234928281
H         -10.29793297707666   23.23769164968093   -0.91614233264416
H         -12.20302793751550   22.80262143941826   -4.73127227879058
H         -11.04235263300262   20.67121490398252   -5.10111988102448
H         -11.49864647408215   25.06214282831310   -1.89290693921153
H         -17.10191123607355   23.20000335744160   -3.88474224398523
H         -16.16846368186518   27.84965588662669   -2.34630420942665
H         -18.52976659579749   28.36454403815222   -2.47058922123436
H         -20.84715966261015   27.68523791930377   -2.95348956749449
H         -21.33663014514033   25.39662531252823   -3.72117139831809
H         -19.51103624452945   23.76780958997069   -4.01027324800279
