111
 SCF done       -206.936323925825          0.000789291735
C           5.57202499625383    2.18018857677026    6.25596869769784
C           6.14248292262651    2.50575956490376    5.05898314467053
C           7.45988215353624    2.99389708555447    4.93077645685117
N           8.52841571469438    3.38721439906401    4.79003198111347
C           5.51482688614807    2.27570324765425    3.81545813231698
N           5.07938356830361    2.02452376278347    2.78389581217668
C           6.24293964316696    2.13994196493235    7.54893911063317
C           5.49152518689238    1.30437534410846    8.43002406274964
C           5.90460154489755    1.05800013661838    9.70927038880813
C           7.09847767595124    1.65185724941711   10.17443595141606
C           7.84359457384402    2.50105836610132    9.30417884608667
C           7.39677933812140    2.73465864722961    7.98358000274944
C           9.02838979721334    3.09436516167449    9.78538281581259
C           9.45991487995335    2.86004852932585   11.06257197825295
C           8.72690206827588    2.02325404449590   11.91794059563003
C           7.57200672937027    1.43181051201985   11.48346894550321
C           4.28188296103450    0.82957098293707    7.74270294203747
O           3.43678433722061    0.06021681162185    8.13591397197913
C           4.26503370290592    1.57456599695566    6.44293307567657
C           3.10317285456714    1.71810010028744    5.76359816762770
C           2.81439472827716    2.69882830938584    4.76941399276953
N           3.52956329498081    3.80486984510948    4.65941781862062
C           2.93074977434425    4.53603193586881    3.69173552557048
C           1.74561391353671    3.85501368445162    3.16750048273123
C           1.12627061718453    4.65071605066365    2.10834530158326
O           0.11089766578080    4.41978445049100    1.47905890894599
C           2.02968826053045    5.81626501807269    2.00219026934929
C           3.10986456147192    5.71113906040377    3.00534046883592
N           3.95272849839596    6.77162136008062    2.91610157683078
C           3.48306731483581    7.49864666611492    1.93520662459074
C           2.28550585217703    6.95507015951373    1.31353546871300
C           1.66369145560085    2.65571497829538    3.83938186765019
C           0.76126433768350    1.57210360616106    3.69409761308339
C          -0.31724011007267    1.68285985146358    2.87965217400159
N          -1.24506196412022    0.72950273606553    2.61026014137095
C          -1.05173261824908   -0.62896732462242    2.86748390535140
C           0.12987968091755   -1.29645640825300    2.69993275466022
S          -0.01778209072550   -2.97665232995600    2.99850827342782
C          -1.68529926170963   -2.81279627995219    3.35057895721408
C          -2.11022194268539   -1.51839398544911    3.25206948371121
N          -3.40976917288803   -1.07964744230845    3.51555067349984
C          -3.54882635507047    0.22575103818109    4.12602584295873
C          -3.60757536755137    1.30738805392864    3.05133612183225
O          -4.43314838743860    2.17068998424876    3.00944677152764
C          -2.49691756996569    1.14068072588437    2.01294464028318
C          -4.47658214587717   -1.80214861097644    3.13230715691190
C          -5.78462227091222   -1.45426936671962    3.29555724783057
C          -6.81190361748492   -2.30568792429402    2.84488232788228
N          -6.57357194374623   -3.33818339951006    2.03156881690525
C          -7.76886116873883   -3.84119106196454    1.70464829590055
C          -8.86168500461984   -3.09378543080390    2.34893986267433
C         -10.17622748817264   -3.65874996644975    1.97943644348602
O         -11.27285647167024   -3.29727772910439    2.34382049773332
C          -9.80175166403516   -4.75014563764553    1.06948424009289
C          -8.33465466388333   -4.83352670218695    0.93109094006614
N          -7.98826234311697   -5.84076264980817    0.10107446617344
C          -9.12880354095308   -6.37996780457286   -0.27789022199853
C         -10.29442418783363   -5.75139266634960    0.28783863436779
C          -8.26538301521780   -2.12678709916684    3.11266281779243
C          -8.88840480413771   -1.20892705427458    4.00583890362269
C          -8.26418983396596   -0.66342044077310    5.08011288411414
C          -8.86836804397609    0.27225638410213    5.95166716655240
C          -8.17206195440828    0.96068568664910    6.90649717703746
C          -8.71290528861187    1.86611445104208    7.90676330693248
C         -10.01756997235748    2.25898831723532    8.04579942246718
C         -10.47425013147888    3.13967251139956    9.04965902809289
N         -10.91066132354212    3.84841240567385    9.84020859325361
C         -11.09043844454616    1.86601583901795    7.21749651167825
N         -12.01456108917222    1.60010791675501    6.59021931268044
C          -7.60893255946745    2.29503847576160    8.75986785620361
C          -6.40278984241285    1.72298711644883    8.26433815464516
C          -6.70129332627994    0.90321659748371    7.08283004895035
O          -5.88210467557922    0.33044322644992    6.38303711814302
C          -5.19563410079142    1.95003679931567    8.86106012650896
C          -5.13818115862427    2.76709736286324   10.01122403195790
C          -6.34076698710250    3.33875463956453   10.51781716930447
C          -7.57493648537864    3.09252437227280    9.87302148390592
C          -6.27399662959384    4.14840750264691   11.66979910775038
C          -5.07825767882070    4.38236663529522   12.29280908931722
C          -3.89472114530067    3.81948900648719   11.79242862526091
C          -3.92386909030210    3.02939353024598   10.67551603237565
H           5.32594947216468    0.41896042148036   10.35977686058654
H           7.97095185688516    3.39013654446950    7.34765196882353
H           9.59041452071156    3.73552771420288    9.12262804170855
H          10.36916540626122    3.31826665946792   11.42141960324298
H           9.08205613068663    1.85015453157372   12.92265780149835
H           7.00379280647357    0.78682482750966   12.13758080742890
H           2.28324215923726    1.08335258793052    6.08157855470512
H           3.97196311212740    8.41515859854702    1.65404491317270
H           1.75475541290034    7.39746252832028    0.49377323099682
H           0.95975598066711    0.66478678028084    4.24506920041012
H          -0.50195351883901    2.63270000961935    2.39385194459281
H           1.06901768229502   -0.88993912096060    2.38421627116195
H          -2.26075744420435   -3.67109153018070    3.63188729226520
H          -2.67418482680009    0.41931343167285    4.75566798722055
H          -4.43456074664639    0.26455601259754    4.76458440257959
H          -2.35946299477052    2.08762230831965    1.48507214169604
H          -2.83340485150714    0.39095934627091    1.28638079927160
H          -4.26110358731998   -2.74619873505792    2.65172810624096
H          -6.06549879559468   -0.51903257685970    3.74773379242692
H          -9.13131385276212   -7.21787485366772   -0.95332594735773
H         -11.31128183585274   -6.03906957060254    0.10783104262167
H          -9.92950394485003   -0.98311420924616    3.80816214340479
H          -7.25330340902070   -0.95662812294753    5.31326879938772
H          -9.93158159398000    0.43877645567264    5.83997251689405
H          -4.29454779153666    1.50540374796984    8.46464462968913
H          -8.46515541058591    3.54184421703210   10.28281848489202
H          -7.18752063653461    4.58017067002521   12.05123873903080
H          -5.03780143265201    5.00288890148241   13.17534843952080
H          -2.95991752541881    4.01476349159852   12.29632091064490
H          -3.01551289880132    2.59311947330231   10.28594310646301
