102
 SCF done       -194.547129288930          0.000770863099
C           4.25389550401800    5.01950484334354    5.74140511931736
C           4.55449132632954    4.57699670696507    4.48586632907334
C           5.82685394978239    4.72255915967605    3.89273318431263
N           6.84296958383596    4.82535447773985    3.37055947778051
C           3.66355467430783    3.83221559291673    3.68377240818967
N           3.00593195324954    3.16745332621033    3.01864777808595
C           5.19840380989715    5.54928642617131    6.71613816440384
C           4.63856990205355    5.40207731863553    8.02103777092757
C           5.33155502756315    5.75771041870061    9.14324643092417
C           6.62770348869624    6.30081458737455    9.00803710749129
C           7.18256069660819    6.47248644250098    7.70599330250169
C           6.44812573909673    6.08507932539125    6.56216943801352
C           8.47442110556976    7.02441070781167    7.58701541756780
C           9.18715326771086    7.38595953792409    8.69762913299502
C           8.64180087135441    7.21272644380928    9.97896199337719
C           7.38999449752610    6.68155003888452   10.13060120691618
C           3.29383715435340    4.82362683028811    7.91096337887901
O           2.55444315792592    4.44403018474501    8.78970734464941
C           2.99768706192099    4.81493694635127    6.44245341338077
C           1.72297355338250    4.73605461009886    6.00272673399306
C           1.25287703876407    4.99384695307356    4.67858796305670
N           1.83821029696775    5.86162198806118    3.87605577421376
C           1.08654574185758    5.88958268437454    2.75127032346748
C          -0.07061976245942    4.99148132974496    2.86031604275321
C          -0.86299995413534    5.01886439675003    1.62100236535813
O          -1.89549774767318    4.43798134979063    1.36922150252930
C          -0.08955341678282    5.94371543410766    0.76681752099068
C           1.08378500061532    6.46282299920719    1.50613605218296
N           1.80644724211297    7.30478675498026    0.72530332233031
C           1.17974892903464    7.32839963043604   -0.42314983959689
C          -0.00852898473235    6.49336769557454   -0.46961334014025
C           0.02887456676646    4.39103343098630    4.09155802858211
C          -0.74708473631230    3.38485437244924    4.71885476876118
C          -1.91976305406940    2.90762159206254    4.22605524749397
C          -2.65537053766416    1.89147528269686    4.88015539821727
S          -2.06727438358244    1.10036625918727    6.30149958298366
C          -3.49104557141079    0.11108384974596    6.42257070913442
C          -4.39561616079514    0.40201708311613    5.37823612261249
C          -3.91583528346229    1.41130752089715    4.51627124338180
O          -4.52610033481234    1.95762988213024    3.43860859151425
O          -5.55594474419220   -0.27122471028739    5.35643235682528
C          -6.37010276284801   -0.31753695411411    4.20511887745513
C          -3.66629383020095   -0.88819237561983    7.39870539336677
N          -4.72899288353491   -1.69119232472296    7.38784257838724
C          -4.54291239894872   -2.57475338187338    8.37496992058794
C          -3.26378330174157   -2.34513208699659    9.07093656766344
C          -3.08842906832829   -3.31085973830302   10.17721847635782
O          -2.17787352815786   -3.38658388338207   10.96941423681968
C          -4.30515057066132   -4.13137934007856   10.07096473966061
C          -5.16271330620897   -3.65357926068373    8.96738061688060
N          -6.28387888999249   -4.40308733591131    8.87384069721614
C          -6.17942291311363   -5.29680377101401    9.83305806972372
C          -4.97340588386559   -5.18322946046425   10.61737054830628
C          -2.69763688360860   -1.25609582128776    8.47369058784331
C          -1.47451420117366   -0.57638445872669    8.73623082167535
C          -0.31342281172629   -1.14714767538458    9.14062706611884
C           0.86193507694817   -0.35737043157175    9.09582981987055
C           2.14649655292274   -0.79094939850123    9.22104536038984
C           3.32349102231240    0.01652319312530    8.97676856407088
C           3.36179439006624    1.14238373960102    8.19338515067719
C           4.51605795803379    1.90266369530583    7.93374637628941
N           5.40666747757025    2.58325442699053    7.67940238173080
C           2.26045775556323    1.62541501906359    7.46045905534990
N           1.42920345670356    2.03508360696693    6.78099701436452
C           4.46575014712039   -0.67681631492640    9.54957368762842
C           4.03734449469528   -1.96613923483157    9.98197365311721
C           2.58849697000452   -2.11918159485981    9.72520610410507
O           1.91558594663038   -3.10925787744829    9.89229900231428
C           4.90970447075252   -2.86100183002729   10.52899915596433
C           6.26863470342726   -2.49860908333200   10.67579315794280
C           6.69928213847241   -1.20648871362564   10.25578897749622
C           5.77480692679767   -0.30021875276900    9.68860137420870
C           8.05704110761191   -0.85957854759727   10.40929505357473
C           8.94968832842520   -1.74602986159199   10.94725461970639
C           8.52556409675406   -3.01827202792368   11.35855929641606
C           7.21383763027843   -3.38601567487032   11.22614987036965
H           4.89677007210125    5.62441238060597   10.12291760429741
H           6.88874084473743    6.22674095740452    5.58766273123888
H           8.89181750059773    7.15255352019915    6.59921141769328
H          10.17606043554547    7.80732764524686    8.59575897372588
H           9.21858812909120    7.50282104679025   10.84447095442246
H           6.96502380888108    6.54599206990111   11.11454370897103
H           0.97200340228379    4.49983507017032    6.74830707267985
H           1.55059562943697    7.93359660818839   -1.23227869520029
H          -0.65175093579996    6.37327273385159   -1.31881623029103
H          -0.35341991006724    2.96795006377842    5.63661241793218
H          -2.34335130144512    3.29697679253410    3.30868406734576
H          -5.41580265390205    1.61162089013668    3.31455541325375
H          -7.04490693723645   -1.15592331663138    4.37778204388779
H          -5.79276995827263   -0.51390492587234    3.29637000978184
H          -6.97569337718023    0.59102552002641    4.09745413381317
H          -6.95599602932419   -6.02767234641372    9.97755799384303
H          -4.70120699757595   -5.81171385189833   11.44203921238184
H          -1.46516428617449    0.48421104246549    8.51668701103164
H          -0.24549265074556   -2.19605886474374    9.38805328735447
H           0.70891973587260    0.69397609470279    8.87812493176765
H           4.56977016494978   -3.83633539430930   10.84393299918343
H           6.12103169389207    0.67487346779943    9.38061653917981
H           8.37884977424347    0.12035588172470   10.08795223974993
H           9.98821808383899   -1.47201881866431   11.05766061700124
H           9.24326676965630   -3.70573982825777   11.78048027013383
H           6.88200108887711   -4.36446063295961   11.54106757921793
