150
 SCF done       -238.341488235353          0.000911701234
C          -6.66490650725381    3.68452208577168   -2.53789245996495
C          -7.81461603975102    4.44200278448779   -2.36724606580928
C          -8.70499756381125    4.77926379976853   -3.39767637354089
N          -9.44859826107617    5.13426784476869   -4.20016485807518
C          -8.28393630509289    4.81332804458804   -1.10031076846940
N          -8.73799586342613    5.05584255664071   -0.06799937793900
C          -6.40853297483525    2.84465432570250   -3.71053591626566
C          -5.40659249616987    1.89448319010827   -3.36296829438706
C          -4.98747768456573    0.94149048914462   -4.24133535438256
C          -5.54964819931594    0.90545626933718   -5.54043813392963
C          -6.54152142859972    1.86088321077392   -5.89743976381744
C          -6.96833023485589    2.82944949565384   -4.95570483821631
C          -7.08830462739405    1.81967063138867   -7.19446576468706
C          -6.67814590278912    0.87772005618886   -8.09943664480846
C          -5.70189525408145   -0.06382111403101   -7.74694236662557
C          -5.15025506276717   -0.05002400160630   -6.49376238457690
C          -4.94915910222016    2.16803176184180   -1.98405341193610
O          -4.10618452762941    1.56222092489361   -1.34840264955816
C          -5.68011514863823    3.37563048010827   -1.56347588505483
C          -5.16939564434090    4.02701293782520   -0.44245549584449
N          -5.16906868848426    5.29924160263967   -0.12676837325791
N          -5.77500254874730    6.31382074015901   -0.85041253074298
C          -5.55247055482028    7.55960456411193   -0.13255571255145
C          -6.69215246246252    8.00683978904465    0.79246551963265
C          -7.09727951242708    6.98045539647339    1.84880429914768
C          -6.27836688091290    9.37696604959755    1.37718960171871
C          -4.75542324511495    9.46203032597936    1.76713335480812
N          -4.65553530889628   10.13076472010287    3.05307238545040
S          -6.04767216943349    9.63711866488821    3.92787365847089
N          -7.07400435298107    9.70241860892522    2.55054874791877
C          -4.07223191358741    8.09395728713759    1.90404438910252
C          -2.58910639299337    8.29866988348733    2.20835150669102
C          -4.26651557821863    7.25218259352859    0.64039309849512
N          -4.43442569954027    5.82993453130304    0.93795425993657
C          -3.24018312373937    5.13316548121289    1.29010444898179
C          -3.01833252930399    4.89188900446597    2.61081315026580
C          -1.79965072742145    4.28656521340946    3.00607862750099
C          -1.29775884369020    3.98788705746216    4.25726072965022
C          -1.97247266352873    4.23468660996245    5.56665328439503
C          -2.16849710026075    2.93051297056450    6.36095076909834
N          -3.28417284426535    3.08596722545314    7.27433664574751
C          -1.21389082035219    5.30081856023237    6.37687836068562
N          -1.97594370073418    5.70209269748161    7.55057826314440
C           0.01099518511100    3.40882681403073    4.04937651330668
C           0.95524341759784    2.98506129341741    4.90895509856524
C           2.27252391972159    2.46925156156480    4.44260683912339
C           2.40130799324205    2.33828015481339    2.95777754607794
C           1.45544392270440    2.77723801855129    2.10739808918058
C           0.25891590204074    3.34966777715904    2.59975512517382
C          -0.84333144289178    3.89855324826605    1.97583391118167
C          -1.13395514110417    4.14618514731961    0.61475257740883
C          -2.29704361958199    4.76204039672309    0.28208920342485
C           2.59149306503819    1.17151788390019    5.13982283210369
C           3.67259103541377    1.00828825072483    5.89018738803558
N           4.02008711838662   -0.20100595848115    6.50123889700860
N           2.95963295748351   -1.00150636210770    6.92436639058136
C           2.87444336987999   -0.78284518811161    8.36856206101436
C           2.08558888833653   -1.86247704483569    9.13158414275870
C           1.85644498747166   -3.15711193103279    8.35025164803695
C           2.71495310859876   -2.07962372850307   10.52738873413964
C           4.26207708177926   -2.35332507303261   10.52122581122869
N           4.50411565145811   -3.74207296014100   10.88242579038772
S           3.00242813331705   -4.58678703001508   10.86862583106915
N           2.05942513008263   -3.18841339659597   11.19593556899332
C           4.91750824453609   -2.01798103015534    9.17449723267194
C           6.43487720367817   -2.05869898913596    9.31282388074512
C           4.35867797005298   -0.64395251730576    8.78199871003183
N           4.94334355681853   -0.09634221928052    7.57176173704293
C           6.12574261875457    0.44619378583033    7.34079940495314
C           7.05615939944101    0.95742998908949    8.22868103123303
C           8.41573541322789    1.27285166441272    7.85857622350303
C           9.04745976626171    0.98294793274630    6.67189334248345
C          10.38139171319938    1.33076475043218    6.38207966410075
N          11.45760572573712    1.58937965942249    6.07412883722577
C           8.47650307716661    0.28325063229274    5.59205263626638
N           8.07645100372009   -0.29831728449448    4.68426235734441
C           9.05341207309899    1.90437477121872    9.01084049263620
C           8.10812738347671    1.95152859080087   10.07307238071218
C           6.82949605056049    1.38424049627046    9.60844586948271
O           5.78125700054215    1.38107347600444   10.24294387161385
C           8.41343244405238    2.48808756946918   11.28878460557662
C           9.70947045333893    3.01067788994917   11.50511520989047
C          10.66091421654421    2.96903546829365   10.44717423724080
C          10.31204196801433    2.40735343958140    9.19593762288464
C          11.94779544788781    3.49750778072496   10.67027743312745
C          12.28176314927720    4.04135492908538   11.88111692284088
C          11.34393409437002    4.08165349087606   12.92254706861629
C          10.08491999904773    3.57671951133349   12.73838794270820
H          -4.23651762288604    0.22024579766399   -3.95442413897998
H          -7.72261269477832    3.54152988443443   -5.25267279476865
H          -7.84243649413007    2.54639622629918   -7.46027291123975
H          -7.10554424423563    0.85394173614308   -9.09108538353646
H          -5.38841711786822   -0.80082227110817   -8.47169201027404
H          -4.39717899651408   -0.77379769935009   -6.21666021570240
H          -4.52420344580045    3.41179863996033    0.17562411203530
H          -6.75972079964148    6.11524471592701   -1.03270122116844
H          -5.38217162224374    8.34198140914894   -0.88149757343910
H          -7.57772323671533    8.18543195590498    0.17100667443807
H          -6.25247223717905    6.57487560798255    2.39217189665663
H          -7.63622536357412    6.16011565451088    1.38079194709313
H          -7.76823268624244    7.45779330811028    2.55675842527695
H          -6.46813995636284   10.13240157262138    0.60373125679121
H          -4.21578649859574   10.05057029517257    1.01755559929772
H          -4.61925529544116   11.14226313729254    2.96430466996207
H          -7.52824135181414   10.60573984651422    2.47687555295802
H          -4.52785061884682    7.58710987971071    2.75614464198834
H          -2.09609214451419    7.34432588859873    2.37126521459388
H          -2.48515150702811    8.90663919897793    3.10236421120405
H          -2.09539844581675    8.80982071704385    1.38370437839711
H          -3.39947505582933    7.39903768766604   -0.02571036756863
H          -3.75415989256993    5.17619635489896    3.34629379068338
H          -2.97675101812943    4.62199079935822    5.36972783330715
H          -1.22507525214546    2.66123820464343    6.86476903112845
H          -2.41472046796681    2.12433720170671    5.66177076932711
H          -3.08256714644307    3.85482717875620    7.90762994740439
H          -3.41693489384487    2.24241935310042    7.82130933648065
H          -0.98580169589716    6.14509693189762    5.70272072814956
H          -0.26148164501923    4.89431454802478    6.72744422120179
H          -2.84615567768182    6.13940511831418    7.26292603356371
H          -1.45358903733268    6.38259491291524    8.09245907687236
H           0.81229162721963    3.00671322856882    5.97971565586079
H           3.02695011362004    3.20464007205072    4.76974217101820
H           3.31558821626490    1.88799360974030    2.60348773561188
H           1.59118637579948    2.68852367764837    1.03941075587696
H          -0.42375093486685    3.85885236084063   -0.14549798365257
H          -2.52995300567321    4.97758441431265   -0.75103001815095
H           1.89033393284793    0.36452528419626    5.00170149243145
H           4.40197563014664    1.79528226665400    6.02974538194729
H           3.18905485054444   -1.97358419554438    6.72294973333516
H           2.38343289275566    0.19032590369241    8.50199113240597
H           1.08553906600807   -1.45974525145758    9.32221908909642
H           2.77260696939114   -3.70041126843615    8.13983354986921
H           1.34015608864306   -2.93400761194756    7.41970018615690
H           1.21860145315302   -3.80675925194756    8.94224677292883
H           2.52967104769415   -1.16683623018915   11.10377754440058
H           4.72761197029420   -1.70415961555919   11.27379214778704
H           4.95365773584342   -3.82885405919779   11.78729341312640
H           1.97082436314072   -3.03556478729167   12.19593321231129
H           4.62946424213414   -2.77065406592993    8.43642953746596
H           6.77899748742029   -1.30331652085581   10.01557159427131
H           6.91964143715800   -1.89451751003285    8.35327258264057
H           6.72950665877188   -3.03790907423928    9.68216661371441
H           4.51681564931430    0.05865349146559    9.60641347572730
H           6.35845482302894    0.50252694031399    6.28282970383627
H           7.67711623462501    2.51534301501027   12.07866125048195
H          11.05397745430119    2.39665542899797    8.41368322602964
H          12.66651259721205    3.46377847920191    9.86453094399989
H          13.27078291568773    4.44367373347721   12.04201910005251
H          11.62276131626040    4.51518378116930   13.87148740437508
H           9.35798079567847    3.60639893375346   13.53726948952749
