135
 SCF done       -216.052916656219          0.000971909879
C          -1.80343240614017    1.10654833705371    3.39215245500881
C          -2.20264389413277    1.44706044704290    2.12695151687102
C          -3.34465718664597    0.91782483503399    1.49399713226050
N          -4.28037421555031    0.54511560804673    0.94254468363208
C          -1.48342395583628    2.31863628828135    1.28305633391450
N          -0.91933599053949    2.96817667832820    0.52304713985635
C          -2.34889397903621    0.00827555845577    4.18212331394548
C          -1.39602052829060   -0.34737478151607    5.18129208491729
C          -1.61710746668947   -1.37830470855247    6.04801011511369
C          -2.82598879916580   -2.10508407264611    5.96123196420507
C          -3.78968810784847   -1.74357383226988    4.97588218479372
C          -3.53065798966753   -0.67627134172336    4.08573979548442
C          -4.99464575468833   -2.47199970644975    4.90547120174061
C          -5.23660396889129   -3.50997762136226    5.76330392979296
C          -4.28644099101784   -3.86639992177684    6.73194695166282
C          -3.10698430829094   -3.17925338236016    6.82839403411392
C          -0.23879319032002    0.56282177874302    5.09729310424096
O           0.78270596902628    0.53259939090763    5.74444549459345
C          -0.61857510477491    1.58534762762700    4.07983792649160
C           0.06099820243039    2.75682747298511    4.02720455932618
C          -0.32202010676021    3.99822136411781    3.41095516730292
C          -1.67145159362715    4.35384024877442    3.25482053470425
C          -1.99040116028052    5.54234799593024    2.65015935601166
C          -0.98027933989837    6.40503549364067    2.19614923091684
C           0.35794651519439    6.08182828963490    2.37674826117372
C           0.67554995425485    4.89045026148649    2.99352232149804
C          -1.60915872267437    7.55637006445850    1.59093219802428
C          -3.00716720974545    7.39312489940921    1.63726925689379
C          -3.36717696026284    6.09541083561122    2.33345700526676
C          -4.08987499363980    5.05726785497407    1.43982797030244
C          -5.08486288354325    5.59794770089811    0.42138719465830
C          -4.08563640761583    6.34485937307386    3.67909627432173
C          -5.53621496524860    6.80221986332372    3.61035639796718
C          -3.82412994692644    8.37795880260029    1.12943430980136
C          -3.25671688672241    9.53700758076414    0.58060315292753
C          -1.86624049151176    9.68475939423043    0.55117011869641
C          -1.03988312992849    8.69862882932879    1.04578444409490
C          -4.10376942346595   10.59975265293504    0.07857300759199
S          -3.53870535782178   12.23314519150072    0.06724510344327
C          -5.03655853445462   12.83985264556596   -0.57600762115361
C          -5.92494890967182   11.79842050494804   -0.78724267723837
C          -5.38943545803458   10.53181594248499   -0.41628605734677
O          -6.06996432460937    9.34190031749240   -0.58238377800497
C          -5.67857310082762    8.62549638578169   -1.73822124760906
O          -7.16524812539714   12.03959508176048   -1.28439063141331
C          -8.18275474705668   11.07704003567300   -1.09471601830105
C          -5.19018525388617   14.25653097685289   -0.80768434756472
C          -4.25408299995267   15.14411654620834   -0.25445770647074
C          -4.38046030729270   16.49509542460073   -0.46306676464701
C          -5.47588279583618   16.99224723251875   -1.19267976353394
C          -6.40493256088043   16.12396098472914   -1.74983244610276
C          -6.25266289679132   14.76568221455613   -1.56613044788661
C          -5.41242300875985   18.43284088269856   -1.19637366518014
C          -4.27210078928411   18.83543238283202   -0.47242438092264
C          -3.51684066102407   17.62946414386183    0.05179510944881
C          -3.50958450891255   17.55797895106466    1.59344575896695
C          -2.72701078901155   18.64722682224792    2.31570604942298
C          -2.10968679535242   17.63763007871756   -0.58151198836514
C          -1.21093599678057   16.45913535946474   -0.23010547953455
C          -3.96294245608511   20.16597183478699   -0.37444458676697
C          -4.81689665300001   21.14162954611874   -0.94052868212466
C          -5.96348916121312   20.71708411598804   -1.63312082441793
C          -6.25274057753200   19.37728079138633   -1.77329001703626
C          -4.42140213975047   22.50025996061090   -0.73382604278133
C          -4.93670551291923   23.72445604218724   -1.05427269141427
C          -4.27999560039985   24.96500248751707   -0.64707864615708
C          -3.19316756735304   25.10447686005286    0.17862087550439
C          -2.62494684887588   26.34729970370865    0.53219402003166
N          -2.10128464950927   27.31430996262877    0.86313892967413
C          -2.47385556489537   24.07943094130598    0.82957531807927
N          -1.82394745324135   23.33521684153957    1.41758248747361
C          -5.01049738157722   26.08051666354750   -1.23642316648634
C          -6.12754577303184   25.55978895922510   -1.94397895383373
C          -6.13765742362403   24.08971068234658   -1.84655787662543
O          -6.98206244798146   23.36942527644760   -2.33933858553728
C          -7.01535075131146   26.36616867405940   -2.59533439890061
C          -6.81959118139395   27.76472724266880   -2.57168852631683
C          -5.69834719422377   28.29656231471660   -1.87236645312218
C          -4.79802806976035   27.43425612573550   -1.20604943384880
C          -5.50881546166019   29.69366850693435   -1.85685191349038
C          -6.38448792431647   30.52626149992900   -2.49853780266520
C          -7.48917337272461   30.00113833793572   -3.18572456173027
C          -7.70185835819879   28.64981973965345   -3.22169874187164
H          -0.87831381858881   -1.63771202242000    6.79168581075186
H          -4.28007679998080   -0.41827948708117    3.35348767737938
H          -5.72163567205500   -2.19605426630797    4.15568946228400
H          -6.16170510059145   -4.06314756938774    5.69981027985531
H          -4.49386568375505   -4.68791552181380    7.40123535168112
H          -2.37160417513369   -3.44905710302152    7.57222760428482
H           0.99672280157260    2.76525902433055    4.57858785489066
H          -2.44433912174299    3.70109441740850    3.63449356435534
H           1.13674512944028    6.74787817910467    2.03808296987499
H           1.71032533807331    4.61240484934616    3.12922211186575
H          -4.59265420624638    4.34064555485669    2.09367684591137
H          -3.32354573863115    4.50899810555907    0.88474073620432
H          -5.88084038493728    6.17021626555471    0.88708970639955
H          -5.53263574031220    4.76047852166687   -0.11051867748919
H          -4.57826790955703    6.22772036216151   -0.30416002600839
H          -3.50430940851989    7.09015931454030    4.22951373993547
H          -4.04585065175655    5.41406299017342    4.25096256625591
H          -5.62789039246288    7.75350709609241    3.09574594792067
H          -5.91611205675574    6.93160865525018    4.62227429979194
H          -6.15759857521025    6.06398271691843    3.11144152319898
H          -4.89673472179051    8.29247523294235    1.15264899765584
H          -1.44575266484365   10.58630746339448    0.12999329424946
H           0.03249201197796    8.81707651404611    1.01571425085724
H          -6.27738233896446    7.71685984098936   -1.74812076742993
H          -4.61560900859462    8.36694696374138   -1.70371666329910
H          -5.87240285005684    9.20525280512832   -2.64781825238805
H          -9.11760945870818   11.60898806184787   -1.27138343907314
H          -8.17335515863197   10.67627124462616   -0.07951630437518
H          -8.09756520056569   10.25343667204169   -1.80784846402351
H          -3.45243917661850   14.74249045219223    0.34677819413649
H          -7.23880164910118   16.50539146762462   -2.31984007812518
H          -6.95998968197235   14.08234128662146   -2.00322060220299
H          -3.11060162071095   16.58381809613975    1.88108801687667
H          -4.55066957165606   17.59140147659314    1.92695030114745
H          -1.69193242094116   18.67961589429584    1.98740506509908
H          -2.73400996997667   18.44274928717541    3.38447185500625
H          -3.17609723518368   19.62394193426933    2.16220226146512
H          -1.61348282248715   18.56384156678946   -0.28727856025820
H          -2.23913235375003   17.67029189944792   -1.66703743184400
H          -1.08128324615128   16.36493990070959    0.84452075623255
H          -0.22991674530005   16.61261827310967   -0.67527943100954
H          -1.61382416489557   15.52891148583594   -0.62018268324855
H          -3.06731393638912   20.49172762882866    0.13336995035112
H          -6.61985554454957   21.45106171342062   -2.06793794909214
H          -7.12672250889439   19.06655118413327   -2.32562624576439
H          -3.49027384384276   22.55557696896910   -0.18136302752049
H          -7.85679448130246   25.94049263913540   -3.12185875697919
H          -3.95960429652031   27.87236055688504   -0.68920539798755
H          -4.65742088278368   30.09318711741786   -1.32541880340443
H          -6.23110385649417   31.59495102464744   -2.48000135639523
H          -8.17046915075421   30.67288431491095   -3.68642702030994
H          -8.55055041944779   28.23936157359284   -3.74929990719828
