131
 SCF done       -238.431810703000          0.000687542491
C          -1.81489564423731    5.07783288594845   -5.25095872035873
C          -0.45802263526255    4.93243944931444   -5.17040683009573
C           0.42342725609695    5.11306954952671   -6.25471385197663
N           1.19593717568234    5.29634299865957   -7.08451165053366
C           0.23917416302991    4.56008087036795   -3.99976248859427
N           0.87366283421726    4.19444017858698   -3.11640385787880
C          -2.57686613325416    5.22263887828241   -6.48454948417604
C          -3.94741966911129    4.93897603772133   -6.21509586028939
C          -4.89809868390541    4.99387486833779   -7.19340191954181
C          -4.51721172129169    5.35133178559569   -8.50676806399203
C          -3.14838092099015    5.64217695442065   -8.78192216300550
C          -2.18406414698646    5.56723366115333   -7.75028983077231
C          -2.78521967340914    6.02081956258879  -10.09124455427868
C          -3.72517671503691    6.10986914737681  -11.08115860774260
C          -5.07131148951318    5.82170744247273  -10.80984152274285
C          -5.45806276514460    5.44878166500268   -9.55140893110491
C          -4.11250349862834    4.64948527343071   -4.78030678287404
O          -5.11371693391994    4.30653751634493   -4.19528870398750
C          -2.78078666777043    4.94001607896624   -4.17076009028186
C          -2.72868471895209    5.19696852390579   -2.84565185836031
C          -1.66121168218924    5.84817124429020   -2.11803761226755
C          -1.31479056822010    5.54246238744802   -0.78845878919235
C          -2.04045734727269    4.56462386894442    0.06902618811709
O          -1.45196641195557    3.77767061033131    0.77786278757639
C          -3.52131484172153    4.61751205304774    0.03736473902486
C          -4.29418192191973    3.49272139992365    0.06784779398382
S          -5.96701858468834    3.83709822805707   -0.06995883277838
C          -5.64527907841867    5.52010734820282   -0.15210840442353
C          -4.31529002274473    5.80636246558800   -0.06896177549985
C          -3.79153968582913    7.19199530228778   -0.03883131834319
O          -4.19276158441988    8.04564514222102   -0.80679356705086
C          -2.78299153071143    7.46518386297459    1.00744889096780
C          -2.71023557391265    6.71583695092002    2.18011214178223
C          -1.76378306349365    7.02590545809568    3.13838401636800
C          -0.88366740637197    8.07662692521821    2.93795927219271
C          -0.96000233949495    8.83529395887996    1.78059820098280
C          -1.91004801510205    8.53562029343697    0.82726418632759
C          -0.16396391415094    6.11436778459229   -0.24908898153946
C           0.60652830974092    7.00812903824763   -0.96271465531053
C           0.22811712702338    7.37971400320941   -2.25300416130802
C          -0.90377592474560    6.79385569946700   -2.80371961843862
C           1.08861937239822    8.20087651187961   -3.11039265209298
S           2.80440678130592    7.73054072533673   -2.95614417716151
C           3.20078724443950    7.54213536728056   -4.65865983834162
C           4.00371441542692    6.56772668462195   -5.16160071347471
S           4.19066282659678    6.71490875150427   -6.86205050175277
C           3.15470442097678    8.08496680006469   -6.90117055482714
C           2.70926353976613    8.41657116414992   -5.66061875659534
S           1.66033755015617    9.78675801762276   -5.30328305711597
C           0.64037088326659    9.08435545864908   -4.02823396609821
C          -0.72903764289413    9.55065794997714   -4.08701323849608
C          -1.48289359245995    9.74614507370095   -2.99719980442881
C          -2.89933286170618   10.04279620378393   -2.96523557089963
C          -3.78166232478401    9.66052384418826   -3.98912855827239
C          -3.37596754827736    8.89787230796600   -5.20143585951684
O          -2.93538612986220    7.76513246191734   -5.16920718664732
C          -3.67264211054005    9.59239426797682   -6.46571694222287
C          -3.88060147120753    8.93497679465399   -7.64822367416801
S          -4.25523173519055    9.99224647847808   -8.93155550585744
C          -4.12044566280494   11.35901112676211   -7.88550474117322
C          -3.81614536471547   11.00988170738707   -6.60903175225033
C          -3.50203593457406   11.98230854198674   -5.51602456541068
O          -2.35641272138205   12.11426383223840   -5.14038330695428
C          -4.62561952744392   12.75125022361775   -4.94618747818443
C          -4.36380530605853   13.56195829823034   -3.84050172494430
C          -5.37665006015036   14.29462889445180   -3.25637877973358
C          -6.66111178910005   14.23205977036312   -3.77302662044278
C          -6.93120123023058   13.42531417830303   -4.86701091845073
C          -5.92397850346514   12.68143898746301   -5.44958457736438
C          -5.14500261676368    9.90997452142536   -3.85488788109699
C          -5.66260735344420   10.49986182713572   -2.72237254456021
C          -4.80421656358881   10.89974845199517   -1.69275677275418
C          -3.43382305841548   10.67026952551865   -1.84702391023698
C          -5.23460635554311   11.40776209978595   -0.41900136719020
C          -6.40385692547114   11.95179581635407    0.00691299408912
C          -6.64900779393211   12.29519289550872    1.40594807333324
C          -5.98185530770288   11.79454259751419    2.49117922008642
C          -6.28527977196632   12.14168094732134    3.82566539509475
N          -6.48052227280747   12.38970074644455    4.92911174369578
C          -4.94175537032618   10.83868891492412    2.46201602561140
N          -4.11265692469125   10.04916235243123    2.55434297534274
C          -7.80435361053238   13.17868933817014    1.45774843947779
C          -8.34390923880435   13.28571987533483    0.14535370840303
C          -7.54096456005961   12.48225263842768   -0.79358769763001
O          -7.77651715035450   12.33468465525705   -1.97396302308448
C          -9.45185561509776   14.03842918818282   -0.11988949635683
C         -10.08151081712520   14.73400083902352    0.93578396467050
C          -9.54235048062976   14.63847216982299    2.25154933293014
C          -8.39422444569025   13.85152440077754    2.49567936855772
C         -10.17879120405000   15.33628751156117    3.29835751401116
C         -11.29543045360379   16.08984093372129    3.05985865136188
C         -11.82561065500455   16.18293201739765    1.76414120270986
C         -11.23149665998415   15.51999531287858    0.72495087156426
H          -5.93171760582797    4.77620944546135   -6.96815609930338
H          -1.15894063309289    5.81005874620058   -7.98247696020250
H          -1.74723666501475    6.23914472775358  -10.29515724051615
H          -3.43663149973458    6.40162549261695  -12.07967784252671
H          -5.79985315384623    5.89601840188471  -11.60312363904909
H          -6.49280167189926    5.22488681841448   -9.33656353570717
H          -3.63068440123029    4.94066525635719   -2.30610708609112
H          -3.95072525510060    2.47893382476836    0.12673829032410
H          -6.45173642403413    6.22252187521965   -0.22491327388601
H          -3.40651619879937    5.90999741746202    2.35817273149183
H          -1.71394154441355    6.44580452850627    4.04751213213549
H          -0.14379658473983    8.31043208457821    3.68905752114469
H          -0.28092406770702    9.66136307386019    1.62866256457891
H          -1.99398326557942    9.10673407593910   -0.08324996438213
H           0.12090661014605    5.83308543224931    0.75360618137170
H           1.50652840847479    7.41645456317165   -0.52841062464874
H          -1.21248274237111    7.07164517842365   -3.79872741299835
H           4.50021020747075    5.78721224248528   -4.62246807248548
H           2.94204322430001    8.57829006068331   -7.82719748054961
H          -1.10289280377358    9.79366106731308   -5.07189242332620
H          -1.01438190471903    9.64457421589671   -2.02646536958348
H          -3.85285883443020    7.87540194053191   -7.80504078860640
H          -4.25277021212832   12.34563964793197   -8.28358634785099
H          -3.35388665430068   13.59780691750230   -3.45940968287804
H          -5.16747058107457   14.91722594966017   -2.39859209457842
H          -7.45361135179483   14.80939047565795   -3.32202717725446
H          -7.93502957896818   13.37134838660647   -5.25956802655357
H          -6.14255944450439   12.04923304337170   -6.29715950618389
H          -5.81637069086321    9.58729326999684   -4.63862312912602
H          -6.72560378361614   10.63627680768511   -2.63158334567632
H          -2.76172819454632   10.98554903932941   -1.06134619360111
H          -4.46266962893917   11.31973928188412    0.33864566026628
H          -9.84636936822200   14.09805197344689   -1.12364581917309
H          -8.00650844512790   13.80428096642432    3.50080219040129
H          -9.76782305716934   15.25966199347969    4.29425757302336
H         -11.77722218243004   16.61829493032551    3.86860130324477
H         -12.70735608258332   16.78234130922332    1.59405178307986
H         -11.63608960173036   15.58754818353002   -0.27442528857049
