102
 SCF done       -193.921127185530          0.000585999758
C          -4.13802921933153    5.05392617669561   -0.33982973519429
C          -3.15684973627921    5.81464141164147   -0.91063329435298
C          -3.41589357003311    6.88991007787303   -1.78679065986090
N          -3.58664137217239    7.76822968946219   -2.50460913466633
C          -1.78765900719227    5.70164543675564   -0.58212101318225
N          -0.68497982088939    5.74406934091686   -0.26578191624219
C          -5.57114090850289    5.32325269386630   -0.39368076197151
C          -6.20587790243732    4.64746968968425    0.69213804268020
C          -7.54987965464104    4.75390090333442    0.91709358353409
C          -8.33279088732149    5.54549399004684    0.04880244629514
C          -7.70726057171943    6.20932427802273   -1.04747806285125
C          -6.31395925545655    6.08530441434232   -1.25437753790029
C          -8.50218264726222    6.99076289263752   -1.91012017890354
C          -9.84911217390174    7.11357890829321   -1.70134308245735
C         -10.46377009710698    6.46033724402853   -0.62217126002706
C          -9.72195012355585    5.69347050575905    0.23460117518192
C          -5.20670863409105    3.87061073941753    1.43662791245956
O          -5.34889361713245    3.20839963405400    2.43691832526299
C          -3.94362796662864    3.99710544591086    0.63397371866798
C          -2.96576500324638    3.07345000027989    0.81298513187316
C          -1.89326188731258    2.76945749432444   -0.06871430138840
N          -1.80585646434882    3.30528673716360   -1.27722029863040
C          -0.64509226433322    2.86504835834447   -1.80067119863919
C           0.06741432426774    2.00418227833125   -0.84519404768790
C           1.34739060836648    1.54194964253454   -1.41278222076378
O           2.17791661272690    0.82169165720510   -0.91127609338021
C           1.34571167797917    2.17513437217940   -2.74941245011334
C           0.10599734980924    2.96661847859830   -2.94235163977341
N           0.08249925284968    3.52555714176756   -4.17780560627506
C           1.19670078692011    3.14309347443649   -4.74696908968844
C           2.02921204950978    2.28938162059831   -3.91342455549695
C          -0.74434013747356    1.88410004245448    0.24807550296199
C          -0.50292380263780    1.10290601885964    1.42517254034478
C          -1.44603819870481    0.45164978639175    2.13061264322876
C          -1.21369349780081   -0.36523012980035    3.30081515244237
C          -2.25509929862625   -1.22899784291859    3.71696953803729
C          -2.14700765499885   -2.05501414626345    4.80613817273854
C          -0.95206922892424   -2.00701369148819    5.52399365301269
C           0.08741087196304   -1.12614429168637    5.12399286058382
C          -0.01865137681703   -0.30782535252933    4.02001222213053
O           1.09991157332392   -1.27664838904282    5.99771039236541
C           0.66847617892003   -2.22253523815058    6.87271387898835
N          -0.53260601619699   -2.67386290382659    6.62655339363789
C           1.54192976407065   -2.65338304103854    7.91728744476800
N           2.69684162859089   -2.04871948427319    8.11516504656189
C           3.33356464557858   -2.77041540364173    9.06311033719800
C           2.53070744215881   -3.93918641741988    9.45870676590965
C           3.23486432887238   -4.73530321468473   10.48229259330131
O           2.88087182370688   -5.75661446356666   11.02140115827525
C           4.47928791188991   -3.96109008612491   10.67976956435722
C           4.49536288372299   -2.77354822538316    9.79016957718831
N           5.62593107678516   -2.04874030028319    9.98399103906750
C           6.28718706634325   -2.68669388806423   10.91468511376586
C           5.62403037893888   -3.88643471728051   11.40056503178105
C           1.35433750079666   -3.85469087686483    8.76776576502582
C           0.24873825495834   -4.76210366511729    8.76525634794364
C          -1.04827577780712   -4.39335334260863    8.70748936984542
C          -2.14302894652254   -5.29223391765255    8.55882626230628
C          -2.14364206576351   -6.39996393998005    7.76704216459123
C          -3.27675306291604   -7.28502522364422    7.55197516429728
C          -4.32208253017347   -7.47473551550007    8.41560141043849
C          -5.38951003253339   -8.36509539966811    8.17693716063217
N          -6.28506553641142   -9.06814764900274    8.03106101407180
C          -4.45316291637093   -6.82877777348041    9.66375739022831
N          -4.61722711435674   -6.34936190315491   10.69379941094094
C          -3.06396490554304   -7.98432158476836    6.29248022065700
C          -1.78276071910355   -7.62171629859552    5.78739048152239
C          -1.11945767054876   -6.69628593971875    6.72415491978508
O           0.00520872557431   -6.25897304606875    6.62245002461081
C          -1.30653281912229   -8.11691621375792    4.60777948886670
C          -2.10621782679110   -9.01356360728480    3.86439914990294
C          -3.39082948254585   -9.37902085763496    4.36145742112317
C          -3.85710487030112   -8.85042905007881    5.58702884298290
C          -4.18032626366326  -10.27242345024558    3.60901304105063
C          -3.72460069254657  -10.78182402673019    2.42359117359511
C          -2.45958822217055  -10.42157674320570    1.93549958042095
C          -1.66739338040488   -9.55693894553222    2.64093723181283
H          -8.00940310341817    4.23954144800781    1.74806980548858
H          -5.86708923115052    6.58928085223738   -2.09690767955365
H          -8.02465348315443    7.49419546944021   -2.73760888736749
H         -10.44894656166965    7.71589341072151   -2.36678121653343
H         -11.52755232218082    6.56828639662151   -0.47315254694440
H         -10.18911756278103    5.18876292245449    1.06745753409192
H          -3.06327891288362    2.46417153232880    1.70322928412175
H           1.43232508211151    3.46029529071776   -5.74811912237748
H           2.97291778992938    1.86979812405273   -4.20054525296806
H           0.54350623675929    0.98295365624773    1.67172868188006
H          -2.47204995615491    0.46710531444652    1.78614971889479
H          -3.16817808055588   -1.23699856537044    3.13979429864484
H          -2.94338895711056   -2.71484329616270    5.10844285519612
H           0.78570899274731    0.35308992646232    3.74476241393501
H           7.23891767582185   -2.31732839610478   11.25578803194927
H           6.00039718249331   -4.54030763360104   12.16206492473704
H           0.51259733777633   -5.80181559848225    8.90218149743258
H          -1.30850444442054   -3.34796666107012    8.79927087835079
H          -3.07444777355016   -4.99288155572688    9.02580781155784
H          -0.33047043265333   -7.82852480522969    4.24664145996513
H          -4.83665894728043   -9.13891136001423    5.93454087239853
H          -5.15272849059824  -10.54849856490197    3.98964962991802
H          -4.33645272860886  -11.46616031948306    1.85524693547891
H          -2.11594510081357  -10.83265488467185    0.99807087938831
H          -0.69217209500389   -9.27618308082745    2.27077833622275
