94
 SCF done       -173.089311812888          0.000426479083
C           1.77644043835281    3.25374937223988   -3.94498154127389
C           0.81454423505861    4.14478904576743   -4.35599928048927
C           0.36382572968121    4.26438702448050   -5.68329691284356
N          -0.06345785924498    4.39063085998600   -6.74235914225574
C           0.22693678695449    5.09111109457035   -3.49818644929983
N          -0.25711929404645    5.87984129285977   -2.81761779150028
C           2.62564484308504    2.46274113313840   -4.83311070163708
C           3.75690336206056    2.01338269330121   -4.09244447346742
C           4.74795052506170    1.27596374422453   -4.67108802535163
C           4.64470993566115    0.93614205903093   -6.03972534080004
C           3.50919441146349    1.36903955115000   -6.78203643281819
C           2.50208615885281    2.14203265546924   -6.15672774464834
C           3.41486277969998    1.01696721069768   -8.14330166239860
C           4.39491083484167    0.27558099895323   -8.74557191932125
C           5.51350815319587   -0.14889683493383   -8.01404839853976
C           5.63548185997462    0.17487248668968   -6.68988840358422
C           3.62487290923383    2.45946463451555   -2.69246566457512
O           4.41156268470173    2.30155207122159   -1.78404873582736
C           2.28675555810008    3.10297082806642   -2.60948902587143
C           1.76445277348263    3.34966731968831   -1.36906893451472
C           0.43947040745159    3.56007805123536   -0.95573254448775
S           0.15124620328185    4.17308771284302    0.65094740829112
C          -0.77279608428472    3.27482596870488   -1.58466467525882
O          -0.82916457475971    2.70326525317329   -2.79635768986584
C          -1.90707694326116    3.57025329246484   -0.78993225566873
N          -3.21731300933438    3.39781272372402   -1.22951359191334
N          -3.43035821986876    2.45194353297152   -2.26242827666433
C          -1.57882283048941    4.09087308905133    0.45231881582991
C          -2.42720679880221    4.53474552500215    1.50642606959554
N          -1.93094754131217    4.65743565374912    2.78671419338249
C          -2.92851697920680    5.08744171304843    3.60194658393016
C          -3.24837964191509    5.42353566356357    4.91425673067104
C          -4.60102392400694    5.78048637266286    4.90455561727158
N          -5.09669153483431    5.66197543355859    3.62136363044612
C          -4.09055133122126    5.24593520061524    2.81001788207358
C          -3.77746813018293    4.90070023922950    1.49442992133797
C          -5.37701563223797    6.17157523031628    6.02735514528045
C          -6.69169461996328    6.50558841735024    6.00407988444125
C          -7.49285200580997    6.85727424120155    7.13058543492111
S          -8.95043849805067    7.77413093340632    6.87450215997898
C          -7.33428051260089    6.53977189235731    8.46453408972358
O          -6.34890001035940    5.72411357563171    8.95462003600492
C          -8.33982536321768    7.07649549369356    9.31571213607888
N          -8.51678630595317    6.73535932066661   10.60326350112475
N          -7.61526226077229    6.07237175319770   11.43316234485159
C          -9.27234510126775    7.86173973873150    8.60135962665034
C         -10.35914754707408    8.62297535964238    9.01553376379261
C         -10.59334297776113    9.22851756113475   10.24037495553655
C         -11.83608448922699    9.85190242363274   10.62051007864905
C         -13.05958602291202    9.66153324995652   10.02292750035092
C         -14.24697433629520   10.29083548597091   10.44169838163007
N         -15.24547510463681   10.78042682313247   10.73121266427782
C         -13.29740178882150    8.77962004945979    8.95066990610032
N         -13.57067093090102    8.05397722592300    8.10210814253316
C         -11.58916662961037   10.65191723704520   11.81670336871655
C         -10.22479991594549   10.48623886006038   12.18767141654693
C          -9.56710341858891    9.58119249021019   11.22609327083855
O          -8.38811874408058    9.25419524627015   11.23093180965206
C          -9.69093784905906   11.11659783934848   13.27224632405055
C         -10.51526996724315   11.95887568379615   14.05427380453235
C         -11.88085871855729   12.12907358398300   13.69029781317546
C         -12.40541355053093   11.46106163513351   12.55778899208372
C         -12.69184757598987   12.97278366533770   14.47462533121820
C         -12.18042029479500   13.61952247903195   15.56729017504596
C         -10.83512497105691   13.45194217319680   15.92428081359665
C         -10.02049759797811   12.63813646492649   15.18387519371165
H           5.60157390070227    0.95322591373013   -4.09351819037364
H           1.65034687805561    2.45315765889360   -6.74131253422713
H           2.55280959234409    1.34858419468268   -8.70363060684951
H           4.31352868827901    0.01279676629449   -9.78986165478745
H           6.27793651733928   -0.73327410661505   -8.50432920988357
H           6.49489635668434   -0.14914953872208   -6.12095288773818
H           2.49338928248807    3.30151150773442   -0.56433752810354
H          -1.77957983008703    2.53730645287992   -2.99203372403562
H          -3.88816138700699    3.38177203954474   -0.46671773619332
H          -4.19324797921722    2.77467788249821   -2.85094217492987
H          -3.65072013804224    1.52082193436276   -1.90714280004585
H          -0.97412674043461    4.47412484487249    3.03634902783071
H          -2.61089790176340    5.42010427805074    5.77539980921835
H          -6.03441140543548    5.89167259881970    3.34424536546421
H          -4.41009939073764    4.98540666033548    0.63462329860302
H          -4.81225981234225    6.23016094067389    6.94782154173442
H          -7.21244260042419    6.56230171187847    5.05775146904732
H          -5.92315370374664    5.26590746347953    8.21948240239938
H          -9.28792620866049    7.15595456236136   11.09903002415652
H          -7.15253853342826    6.74380545090201   12.04771179435125
H          -6.90915397342508    5.61859644585403   10.85880781607240
H         -11.07645175843301    8.83670369823914    8.23066562619075
H          -8.65215448246044   10.97764786950114   13.53374358582379
H         -13.44197852859555   11.61500777275707   12.30279513972785
H         -13.72783419349109   13.09839354384718   14.19541482981933
H         -12.81070153074390   14.26409807262069   16.16175269320842
H         -10.44630042678627   13.97051912386987   16.78814035359696
H          -8.98270384489937   12.50572345661805   15.45412496629576
