111
 SCF done       -227.379909111851          0.000819758344
C          -0.73948247961374    2.72930664221028   -4.95784190033126
C          -1.10149734657030    4.04706090101230   -4.98874648343187
C          -0.65855281622405    4.96172092753789   -5.96984436589281
N          -0.32114542793175    5.75386114684916   -6.72773824537284
C          -1.99082026196510    4.65396748214088   -4.08068705678151
N          -2.71314706650758    5.20629984778652   -3.37903265590944
C           0.04929026554055    2.03222439998363   -5.96034660907874
C          -0.09683977547964    0.62526690180582   -5.77102026847853
C           0.53132671528673   -0.27669590237636   -6.58167837857195
C           1.35253103000264    0.19363607174758   -7.63038584051995
C           1.51568002897451    1.59833807736476   -7.81502621529005
C           0.85119345906679    2.50933072306945   -6.96455153680526
C           2.34953527680228    2.05410108212950   -8.85707428340225
C           2.99011289033082    1.16759946727344   -9.67910437154263
C           2.82708877301954   -0.21436137379244   -9.49793395048394
C           2.02525085306363   -0.69092763639815   -8.49629286091958
C          -0.94669063629536    0.37061891083926   -4.59950826088571
O          -1.33075723952029   -0.68113747474860   -4.15517981138661
C          -1.17779649611017    1.72702298830165   -3.99575998951615
C          -1.52430221812220    1.81487163258261   -2.70137176232588
C          -1.50730177412911    2.98291064862881   -1.84027805693161
C          -2.64182060117740    3.32657205299028   -1.09009374936593
C          -3.92413648672558    2.60500338965969   -1.22347777889280
O          -4.15594432483273    1.66129881946212   -1.91721146605352
S          -5.14285424573077    3.39533128680457   -0.18093103298485
C          -4.00624235724947    4.68023507754579    0.35603378837180
O          -4.33979774175921    5.58482549021100    1.05780349517959
C          -2.67932604672400    4.42603647404609   -0.24498686443636
C          -1.57096807517842    5.27294337754893   -0.07920629679235
C          -0.42466165428911    4.92288622348748   -0.81650696332606
C          -0.39066167309020    3.81551863222362   -1.66448979763718
C           0.92506640181454    3.57830803267408   -2.29873296625646
O           1.24208488174605    2.70088346498465   -3.04865776049911
S           2.07223361371642    4.83762717128667   -1.76702303591158
C           0.86273003135360    5.63613858959965   -0.69725275866435
O           1.14688369145630    6.56857148195331   -0.01068221488736
C          -1.58761288287482    6.41816123973844    0.80397775328667
S          -1.86224675532457    6.19489515076255    2.51422502338146
C          -1.57891504481126    7.86192755434078    2.77425042670447
C          -1.33340211549757    8.55879411186016    1.59199973714934
C          -1.32382224226379    7.73029235225926    0.47560036459375
C          -1.06293094273713   10.01732479111075    1.87135068484149
C           0.31423830752256   10.43687567137238    1.35251897535273
C          -2.16266143298754   10.90784395010468    1.28315761101223
C          -1.11241362081917   10.01860625160763    3.38153136056560
C          -1.44081005960135    8.74780958914082    3.86850217602165
S          -1.47609698803037    8.68457223713931    5.57489096621237
C          -1.00236768537556   10.37142883373455    5.65653982162733
C          -0.86864026416004   10.93307066052551    4.39115219828035
C          -0.71618381152952   10.92949993607228    6.92490579199600
C          -0.20461731385698   12.16968374283049    7.11406198452185
C           0.19360882495354   12.72396738461456    8.37071522799053
C           0.77786230748609   11.97990241530586    9.42870597954226
C           1.29058249733005   10.59922379000143    9.31428392193375
O           1.35266254000157    9.88573794366610    8.36024315654373
S           1.98324161033324   10.08561806637314   10.90491773764235
C           1.70445454418841   11.67483300023422   11.65296394399056
O           1.97886610874676   11.94008377013297   12.78660044116282
C           1.09794051549061   12.56952844343053   10.64735532970890
C           0.94534560802744   13.93668280434776   10.89261873939050
C           0.44457833923548   14.68460014542305    9.82900706100007
C           0.07892935507849   14.11380173714433    8.61479366366300
C          -0.41474550191187   15.09649447542951    7.63736671312404
O          -0.81722740645098   14.91970009471936    6.52573371513650
S          -0.33436462744741   16.75060747688822    8.36493391601226
C           0.31506131075241   16.14927021527861    9.91265627803261
O           0.59485148108313   16.84270959868232   10.84651820709776
C           1.33418686959589   14.56524671321075   12.15487232677870
C           2.61761805190485   14.84941158223986   12.42694613666828
C           3.20946021101588   15.44511171668158   13.61953800508825
C           2.53539101339117   15.87655791580537   14.72488680104525
C           3.15491897146274   16.45143072621802   15.85648675504339
N           3.60361712331410   16.92026907334821   16.80257161649822
C           1.13417571807785   15.80211010414393   14.88647105862330
N           0.00386256252469   15.76925474287956   15.08023092829662
C           4.65032388170613   15.48245514516839   13.41088302846298
C           4.95291811552257   14.94107662941500   12.12555911262385
C           3.71143756298372   14.53961167305136   11.45991454925697
O           3.57044942324276   14.05558046675835   10.35598566742102
C           6.23648295771045   14.84429411487370   11.66630371166863
C           7.29685019464947   15.29082551706434   12.48401673534461
C           7.00429011002188   15.83337281687895   13.76966687006236
C           5.66741533297911   15.92200469945208   14.21877532717217
C           8.07198122913805   16.27489840249116   14.57807395781099
C           9.36516238283860   16.18546101767699   14.13987754431041
C           9.65157042657562   15.65134758948697   12.87418936376906
C           8.63959443251025   15.21358389705698   12.06376867443925
H           0.40694898636802   -1.33727967354884   -6.42137860987484
H           1.00544921218298    3.56622286887559   -7.11625275853229
H           2.47026193286356    3.11858355566817   -8.99384948510543
H           3.62674253413864    1.52610750077619  -10.47387267221243
H           3.34118014161796   -0.89929223574375  -10.15530077411968
H           1.89712469424532   -1.75356426146844   -8.35193688022012
H          -1.84334559326794    0.88650465071724   -2.23627519142105
H          -1.14905586942191    8.05085889507614   -0.53518607201518
H           0.34005390243895   10.36688841394761    0.26844202327860
H           1.08487882416863    9.78647230997555    1.75870854844964
H           0.52724498038432   11.46191066956417    1.64468020126830
H          -2.16107237347026   10.83368545230010    0.19880680924811
H          -1.99354150527161   11.94373237674736    1.56570264356110
H          -3.13789071374709   10.59913873092623    1.65241535669285
H          -0.59980948604676   11.96150795090921    4.23612961989910
H          -0.92059243057099   10.29025854896692    7.77201316369106
H          -0.12654215066787   12.83501666431300    6.26751458061776
H           0.53414806314250   14.79652461604388   12.84481121682066
H           6.43823512964370   14.42911986895352   10.68988002865070
H           5.47950056628302   16.33583120865120   15.19683216166318
H           7.84725756621226   16.68508999779376   15.55151887753332
H          10.17573862253917   16.52577566411557   14.76648750470572
H          10.67789961137674   15.58846939263213   12.54505603542831
H           8.85342295850006   14.80121981570987   11.08861491092892
