128
 SCF done       -222.667568421892          0.000976632048
C           4.79070458354965    5.82776276550400  -11.69070498538072
C           4.53448692710044    4.99903981949213  -12.75454439533190
C           5.48484204882417    4.66740636129555  -13.74156388768513
N           6.20614745042172    4.35648378059621  -14.57980764922088
C           3.31467943041200    4.34499300524220  -13.02559578541588
N           2.37010636316096    3.76522153638875  -13.32907664481831
C           6.07618627259189    6.46617848407100  -11.41496115593215
C           5.96365966789899    7.20381879035514  -10.20208564337030
C           7.00956004095519    7.90960150369204   -9.68347093836477
C           8.24497885377049    7.91324692099348  -10.37014923184473
C           8.36680255111885    7.18053965601867  -11.58496828364491
C           7.26358928077705    6.45669741078101  -12.09590868521774
C           9.60202613794487    7.19234245305565  -12.26326807904973
C          10.66732157074196    7.89390843883346  -11.76723223181146
C          10.54618487796693    8.61506881092060  -10.57063456451836
C           9.36055027658456    8.62412609655544   -9.88682521087538
C           4.59623324552484    7.05841043710409   -9.67713640790907
O           4.15962563597063    7.55863221159026   -8.65294247045308
C           3.87866689633725    6.21163497575688  -10.63442337789997
C           2.54934922532102    5.87449165833180  -10.55365610874039
C           1.61174794804639    6.16685294252249   -9.55885449204401
S           1.85275123235734    7.02280637957585   -8.06231286157790
C           0.20775657717472    6.75178366535977   -7.57923910692398
C          -0.50932518748017    6.05215272708914   -8.55403104026434
C           0.28035418904032    5.72216926663823   -9.65545715434754
O          -0.14688456639355    5.02667873500754  -10.75135637967266
S          -0.85956288850147    3.54614676221713  -10.45045863122555
C          -2.56645165633587    4.07740378745964  -10.00874064921103
C          -2.59849909994851    5.52257964973866   -9.53462484314341
O          -1.83066645390485    5.76559781738626   -8.37067274586198
C          -0.31988519431040    7.18356530758426   -6.33763730693497
C           0.42175127839216    7.82548516026395   -5.40380658946042
C           0.00520924106208    8.24080799413159   -4.09673268880420
C           0.95581290133467    8.75036152757794   -3.23546064539462
C           0.62164147173606    9.08810535252450   -1.91084846434311
C           1.39045685629678    9.54727764089924   -0.85053286969003
C           2.83738621461056    9.91245839710720   -0.82518769939842
C           3.73898912514841    8.69193743485298   -1.08948369919055
N           5.04795270210136    8.92953630881151   -0.50894006114499
C           3.12604417212824   11.06310161429866   -1.80647715692947
N           4.46245518310518   11.60064977336568   -1.59217448088969
C           0.51633967987291    9.61158882741883    0.29618816271926
C           0.77229543394853    9.88070909560831    1.58943475577488
C          -0.28218025318912    9.75805042708481    2.63134599160724
C          -1.66678851445658    9.53015477449080    2.09516995457617
C          -1.90218072065343    9.25962898379363    0.79952198021526
C          -0.83739093267564    9.23403189978559   -0.13479907958893
C          -0.75927723121153    8.90606780781102   -1.47017180151548
C          -1.72672272294141    8.43213339445535   -2.38968921687794
C          -1.35498300580102    8.10920271560579   -3.65132936399469
C          -0.27699437956916   10.86889236683179    3.63964413560395
C           0.32458120423938   12.05047183984031    3.48194819107678
C           0.35990241527418   13.06139966083794    4.49481977386758
S          -0.43426259434908   12.90639575494989    6.02278918372154
C           0.20177406114656   14.42778937456266    6.59355687298387
C           0.98958554648931   15.02621339184607    5.61128919744562
C           1.07076698421638   14.24697407013502    4.43416368123021
O           1.80366956695584   14.59092918304248    3.32678407407977
S           1.40024003570743   16.03897478871995    2.59461671860644
C           2.26891298069320   17.23432970011310    3.69749300427971
C           2.67523289729019   16.59437098143549    5.01438486704586
O           1.58000442921075   16.22091288455511    5.82998482201869
C          -0.05207571161653   14.83581258051405    7.92098822028437
C           0.50380806960688   15.91992526540496    8.53158778360356
C           0.27313712903792   16.19057718900694    9.89459264039171
C           0.91598833770585   17.16067631024730   10.61708122578072
C           0.73612234662899   17.44968353707482   12.02564372587277
C          -0.17408870579598   16.87814664935532   12.87942018115653
C          -0.29612981444060   17.21066816977361   14.24435498437588
N          -0.45125951867905   17.43059675626505   15.36081432831097
C          -1.12135302956414   15.89179405412424   12.53699961507877
N          -1.92336529157379   15.09092881740575   12.34681858351472
C           1.69997955446637   18.48203728299038   12.39546767607388
C           2.43665280872304   18.85195071306763   11.23490768564192
C           1.97353479454602   18.05398125720648   10.08482587636163
O           2.39872072671563   18.12101816759104    8.94798760823468
C           3.41845949025483   19.79883183229550   11.27414726391756
C           3.71998926517702   20.42969973011594   12.50198845515127
C           2.99139416077899   20.06206740616072   13.66921642956714
C           1.97609379354826   19.08051239009432   13.59611539843851
C           3.30474167456261   20.69135889008290   14.89109450033322
C           4.28985601737400   21.63861470280706   14.95861770142418
C           5.00577446757537   22.00090797576266   13.80804328478040
C           4.72654430512481   21.40948251255669   12.60588389680969
H           6.89650416630422    8.45977340145874   -8.76107577890001
H           7.39046240324795    5.91366962755796  -13.01864548462395
H           9.69048673546988    6.63498439922130  -13.18435290740959
H          11.60942466062370    7.89665147185336  -12.29491219168981
H          11.39650837757172    9.16344389528702  -10.19314061135633
H           9.26107266156232    9.17780449579373   -8.96443057220273
H           2.13015529833250    5.28929598218578  -11.36440874474354
H          -2.88680011948381    3.40000247054922   -9.21926025541735
H          -3.21016150093904    3.96670653429426  -10.88059759971606
H          -3.62673860747776    5.77544963770167   -9.25503475252581
H          -2.28475826670383    6.19252450534853  -10.34437028883643
H          -1.35935855656972    6.93879954044109   -6.17308767819481
H           1.46047195034891    8.01757843389217   -5.64712913613922
H           1.97489458313373    8.85261693578358   -3.57654096059108
H           3.09166343070521   10.26581703876304    0.17920596341136
H           3.76809392097266    8.48826270314139   -2.17144634013806
H           3.30512920360225    7.81423549273127   -0.59738942868383
H           5.43053565458028    9.77896690334970   -0.91721014524210
H           5.67366356153523    8.16073017404546   -0.72468560509066
H           2.33377050500229   11.82276861530082   -1.68995371948906
H           3.08075524741125   10.69537131556645   -2.83382054928360
H           4.51860778414569   12.03420432479641   -0.67560666889542
H           4.66778593419888   12.31370825458298   -2.28401981096071
H           1.76645293423189   10.12383219836206    1.93878872547324
H          -0.02156910847841    8.84334715728803    3.19793242660508
H          -2.46596748710291    9.56000761186075    2.81939701739471
H          -2.90695479214914    9.06308318203725    0.45435226622009
H          -2.75199520355227    8.32151101765932   -2.06747253420642
H          -2.08995253306873    7.74201763299952   -4.34988264810599
H          -0.81544347070290   10.66931707400490    4.55746684186283
H           0.85572180752145   12.29715911964702    2.57279586503627
H           1.56906471778937   18.05036973268556    3.86552777234856
H           3.15403320184103   17.60240004339727    3.18181882387240
H           3.21706685743607   17.33435189151915    5.61155894687948
H           3.33281377424421   15.73522521241506    4.83708043017959
H          -0.70625734430355   14.18650592219262    8.49139025933964
H           1.16855297334124   16.56871654998696    7.98521635194874
H          -0.44517166065544   15.55675911277999   10.39931938547595
H           3.96251548484851   20.06140087129449   10.37879848635923
H           1.44483260531357   18.82487921710522   14.49887593501765
H           2.75044194815411   20.40906894314952   15.77416809485258
H           4.52311823788032   22.11412128149461   15.89955145263671
H           5.77990367070263   22.75041994192877   13.87905370080603
H           5.27501922667869   21.68403265923428   11.71649800201498
