136
 SCF done       -252.557760532416          0.000942859718
C          -2.44302750896065    9.59455579917738    8.83330699391262
C          -3.30675654329337   10.41410833493796    9.51779513596031
C          -3.90992258644639   10.07338438263104   10.74536103954566
N          -4.42872273103769    9.85988677040253   11.74746430365430
C          -3.74422838038871   11.68274216014313    9.08656964433795
N          -4.16153012337845   12.71046934483043    8.78699839764342
C          -2.07021391279509    8.24122126814332    9.23901416140767
C          -1.25227364210463    7.67605712323007    8.21937923613892
C          -0.75446377173886    6.40892898546046    8.30758059653322
C          -1.05609066814517    5.63021948700878    9.44769542919759
C          -1.87004075230072    6.18767868850861   10.47479587988298
C          -2.37243737173791    7.50511859234510   10.35244866173900
C          -2.16396226442723    5.40286769286999   11.60760025658654
C          -1.67884949785533    4.12802279938796   11.72198604699304
C          -0.87732829051963    3.58042155067002   10.70996482511318
C          -0.57254667611431    4.31599169821363    9.59656719158707
C          -1.07438751074187    8.66411588254110    7.14615983206088
O          -0.44178871308030    8.50174028451440    6.11306709928170
C          -1.78881623441066    9.86895181557541    7.57177989346405
C          -1.77684588395981   11.08610325318360    6.92236740032018
C          -1.21660256984092   11.44730790452451    5.69974350907777
S          -0.42296243625988   10.38080854480568    4.58090467391480
C          -0.17161754506918   11.63497285785031    3.41898588867591
C          -0.66241310889935   12.87404592696789    3.88209670520095
C          -1.25709495767193   12.77188327238707    5.17205283528909
C          -1.78822546321056   13.91319976757237    5.77118925427829
C          -1.73889164147766   15.13418175347793    5.10892013305841
C          -2.30572398754917   16.28373027438679    5.81266478243544
O          -2.66416564751986   16.29402545334028    6.96232498415609
C          -2.45448230539407   17.59880824969628    4.98689415206544
F          -3.13232516158678   17.40924271641245    3.84062643112437
F          -3.10576236649818   18.53191030932343    5.67477572091419
F          -1.26191799359121   18.12230119787048    4.64643226163331
C          -1.15076546028590   15.22625936440084    3.82633384117199
C          -0.62109732851132   14.11723468816300    3.22818133722270
C           0.44564698892643   11.38342875563846    2.17360271529758
C           0.89347180637154   10.15655613537825    1.80060972916109
C           1.47695078363376    9.79076242992376    0.54553531504899
C           1.69179105136566   10.68970189266663   -0.48123319029597
C           2.21032119399975   10.25436308670368   -1.71290154505646
C           2.47063556894882   10.93786280193135   -2.89587130977965
C           2.34887042552744   12.39531411064642   -3.18204843795586
C           0.90206033259286   12.90031712218927   -3.00848726599951
N           0.69558055047103   14.04388933753585   -3.87372840103759
C           3.34064612143268   13.20143867623166   -2.31992081552348
N           3.34300719338340   14.60005892294916   -2.71766270146419
C           2.93399882728426    9.95485718342074   -3.84723360698955
C           3.25465040974143   10.06505408168868   -5.14908372222734
C           3.71761404181253    8.89447741203611   -5.94232216407836
C           3.74971713525906    7.59679636419815   -5.18574691614273
C           3.40886354448330    7.50433664740025   -3.88778888581236
C           2.98072283382728    8.64901779812454   -3.17437714377758
C           2.52878211238438    8.84026461101572   -1.88648049098024
C           2.33276093554856    7.94403143938929   -0.80878532185110
C           1.82531179804107    8.40798499991628    0.35783329106163
C           5.10471404784079    9.09762547025347   -6.48692435168193
C           5.96298935963351   10.01689584778498   -6.02165178412172
C           7.28628491917086   10.20793111213974   -6.50940118301142
S           8.02315644493954    9.13783989484895   -7.63588415116106
C           9.49581946203811   10.06779025303058   -7.70841786798180
C           9.40678542805982   11.19150007696924   -6.87445383335209
C           8.15416053508125   11.26972247252728   -6.18705436835732
C           7.89154768643945   12.33377162243114   -5.31756798356905
C           8.85052182393296   13.31222877069651   -5.12955794931980
C           8.65934368475846   14.46020778783500   -4.25384392900924
O           9.46413948437264   15.33593278898603   -4.05209345399741
C           7.28608818863039   14.55239403408346   -3.52178841895577
F           6.24490647183994   14.59985272418175   -4.37801437146105
F           7.05775662400253   13.49635904798963   -2.71735141298069
F           7.20498838287184   15.64008649927321   -2.76254874928955
C          10.09613651032806   13.22705038386878   -5.81417402038233
C          10.37247954867145   12.19798996837278   -6.66125402712236
C          10.57233839456620    9.66225771540444   -8.51702467620775
C          10.57325429732654    8.52410600979792   -9.26975679132668
C          11.67452811051485    8.14081509517618  -10.05664729240732
C          11.73387861924819    6.99358201328847  -10.80328130162947
C          12.84266489449969    6.54670486412348  -11.62205801945474
C          14.02132861079798    7.21159968293492  -11.85243731193869
C          15.06341098465152    6.71693491123760  -12.66392566054243
N          15.95058108488477    6.37631456191898  -13.30849560083409
C          14.37008433889152    8.47352208865028  -11.33006679530988
N          14.72898117271537    9.49612127732984  -10.94793770928729
C          12.48757990097914    5.24573835376544  -12.18106458576733
C          11.17857834855358    4.90248678113794  -11.73811839022860
C          10.65434943844759    5.97699442903179  -10.87846095895388
O           9.56368708416715    6.00472879133576  -10.34294296477260
C          10.57675362939274    3.73197383282979  -12.09912006941500
C          11.27016546286572    2.83008198679703  -12.93675281235948
C          12.58039952628579    3.16485531696434  -13.38458162274859
C          13.17734389764466    4.38600074631261  -12.99429369037839
C          13.26497613859527    2.25728430598461  -14.21812266717823
C          12.68509555330440    1.07546626029732  -14.59182146247317
C          11.39488122482221    0.74691875276184  -14.14999454662875
C          10.70229357688621    1.60587973104705  -13.34033214500432
H          -0.13823736501807    6.00449161473464    7.51822728462228
H          -2.98330930623258    7.89682810888170   11.14992227177535
H          -2.78212948557676    5.82842438369464   12.38443718147105
H          -1.91069600566279    3.53477200140073   12.59382795860419
H          -0.50239608894035    2.57336147154997   10.81623514337467
H           0.04448505351456    3.89983381254530    8.81341821401853
H          -2.27202403215771   11.90118950454861    7.43274585368207
H          -2.25288521679961   13.88377370228606    6.74540184830319
H          -1.09960804919442   16.17070072493311    3.31141212833219
H          -0.16767654093496   14.19733837084717    2.25301283754165
H           0.53658508314076   12.22576007076257    1.50324781415985
H           0.78216602148081    9.35104813523597    2.51671080086496
H           1.44451560986181   11.73059142980853   -0.35230835788846
H           2.60407059728867   12.57263463434505   -4.23150472928704
H           0.71608387272953   13.11725030251910   -1.94471713738370
H           0.20743884331569   12.11089268724668   -3.31560757935822
H           1.34618820876496   14.77620016140719   -3.60150069420399
H          -0.24922615453275   14.39920156295240   -3.77732693459091
H           4.33340079508744   12.72469354570573   -2.39697394738955
H           3.03903965214798   13.15348172950482   -1.27079053566380
H           3.73461317914523   14.69761245872391   -3.64967589521752
H           3.92123921860595   15.14389459901900   -2.08571389879147
H           3.19060049902391   11.00629320591532   -5.67852394882739
H           3.03966533693415    8.78071614889247   -6.80317619274853
H           4.08044769291908    6.73403510646425   -5.74266668061339
H           3.44363192882829    6.55214083465703   -3.37872049210009
H           2.58170337034127    6.90057479528726   -0.93310707781900
H           1.66089637168850    7.73466723574615    1.18628019951492
H           5.41081316034423    8.41612814302258   -7.26898813828461
H           5.64589234170824   10.68671936878888   -5.23445806374026
H           6.94107679528486   12.36515725298962   -4.81248000215345
H          10.81412614193534   14.01226171456149   -5.63675796756635
H          11.32071355929254   12.14981850900488   -7.17232321857093
H          11.44640033566251   10.30093684611121   -8.52300188237602
H           9.70488449351990    7.88018261047157   -9.26383138302777
H          12.52689553884705    8.80781254225899  -10.05443863452526
H           9.58225584450910    3.49703465574521  -11.74931931273729
H          14.17099109216570    4.60711805191581  -13.34991269247078
H          14.25812966289831    2.51460762668814  -14.55599568718308
H          13.21781639681097    0.38689600373716  -15.23041854992706
H          10.95261996377543   -0.19004101636771  -14.45409116145748
H           9.70844605776449    1.35838700904268  -12.99665746604619
