116
 SCF done       -236.337887917015          0.000953677480
C           1.08740692816201    3.10757875862046   -4.09068466221696
C           0.36058830352206    4.21804626708939   -4.41834778945468
C           0.67233357923643    5.07078923757819   -5.50101497533178
N           0.88426925571424    5.80918489076184   -6.35300437217241
C          -0.81722045562583    4.63285568487088   -3.76634789538421
N          -1.79059121368333    5.01770457161135   -3.29333554746152
C           2.20086096560417    2.56145619334610   -4.84964003293779
C           2.45178909007991    1.22657531362427   -4.41204765147141
C           3.43553816755269    0.46160185496203   -4.97088795628349
C           4.22868945943239    1.00568142308705   -6.00551874499661
C           3.99510588814279    2.34529494306783   -6.43485121569264
C           2.97054410616708    3.11416720148529   -5.84026897288240
C           4.80106269033995    2.88063661488145   -7.46087191889247
C           5.78769685590327    2.12963276139452   -8.03906608127831
C           6.01512467540802    0.81055150859343   -7.61772994457200
C           5.25250998608831    0.26056275077292   -6.62309523027540
C           1.54118567186380    0.88987645420161   -3.30844260547664
O           1.42521050589310   -0.15073132121731   -2.71267429435315
C           0.81593224435942    2.17053635055881   -3.00833322847772
C           0.24560185452670    2.33424480663897   -1.80396661984519
C          -0.23782809228701    3.56805911551324   -1.20969207409588
C          -1.54741286554719    3.66155699827128   -0.71860636128649
C          -2.50367769155697    2.54284265795367   -0.83594164044262
O          -2.32339203307006    1.49162137747763   -1.37322917047546
S          -4.03238701759815    3.00874709061990   -0.04026929413546
C          -3.43190527471953    4.65146073539672    0.38907351268445
O          -4.08626817871134    5.41647159079200    1.02894754467040
C          -2.05901236812309    4.81451900141023   -0.13780312451710
C          -1.29026769264927    5.99023811086822   -0.03050750675218
C           0.01933931957345    5.90407490273973   -0.54353728508518
C           0.53941410990463    4.72711392981682   -1.08072628434621
C           1.95507975824616    4.82409281134458   -1.50043985529870
O           2.67535867146697    3.94931618199199   -1.88541455088055
S           2.49463946401578    6.51816606700375   -1.34872296069967
C           0.90732466630732    7.07057091308068   -0.69830995223444
O           0.66565251374767    8.22402830657216   -0.51371347944221
C          -1.80295627818986    7.19566933867459    0.57303806389963
S          -0.89680303110009    7.99694891434517    1.83577185451882
C          -2.99027899854033    7.83365984638891    0.28137752141266
C          -3.18526796509053    8.97786961980931    1.05857960016881
C          -4.15805295244913   10.05966430766557    1.22568262956630
C          -5.33854679414626   10.21771094449483    0.58387859805335
C          -5.81508588940418    9.22761793502129   -0.44684741351358
N          -5.18697531924702    9.41304931689061   -1.74940352766862
C          -6.20303723686094   11.42385340807036    0.84340518362344
N          -7.34244111178446   11.50177631114515   -0.05305942026970
C          -2.11920172825067    9.18172302003276    1.95368048308792
C          -2.36038631078703   10.35237059801224    2.69326792635779
S          -1.58299689234255   11.25354714839953    3.91634158795450
C          -3.58187005619088   10.91345332907060    2.26725104296240
C          -3.87589958768718   12.08030946018969    2.96772886680724
C          -2.89273908664510   12.41932349677170    3.88771685459285
C          -2.86981081165395   13.57862300457056    4.69904774088840
C          -1.86670968214838   13.87048925125883    5.55895416737233
C          -1.76353873492031   15.03386706410498    6.38679641938791
C          -1.18944035118253   14.93872096756696    7.68084005862102
C          -0.66935729199009   13.68524739260366    8.25689711093877
O          -0.66338403980771   12.58619083601782    7.79020754316377
S           0.01011718646842   14.02354632671397    9.89478598129480
C          -0.46632849286473   15.73964819322706    9.84958860199794
O          -0.30815140888277   16.49400807216173   10.76370675823598
C          -1.07924822091598   16.02738549124141    8.53544124006783
C          -1.49564326219657   17.30876060760296    8.16292486468313
C          -2.01277118074736   17.41968190231848    6.87241331228020
C          -2.14753453621855   16.34067287146815    6.00088851532839
C          -2.56181862802725   16.75143667444073    4.64650387576037
O          -2.67858942135529   16.10331546484671    3.65066239126724
S          -2.85330151631777   18.53984666215457    4.62569092603600
C          -2.36222943383484   18.74109782997371    6.32361324920506
O          -2.30698585750622   19.79055781719634    6.89603131899902
C          -1.38703539147074   18.47723651815172    9.03292077225471
C          -0.20489985781748   19.04069416065094    9.32892993625732
C           0.08776415119555   20.17206084841377   10.20141301808206
C          -0.82792400767543   20.95766631817326   10.83986100372982
C          -0.49240334277872   22.05532296979159   11.66296459469683
N          -0.28090087503501   22.95900305300582   12.33746082747831
C          -2.22742208866074   20.77951168565627   10.76948865761985
N          -3.37080097632793   20.68267316283316   10.76868118012194
C           1.53665064768331   20.30180579344533   10.26481250657666
C           2.13351530716408   19.31285963015971    9.42690925427058
C           1.08413155535435   18.51404077894531    8.78889359540246
O           1.20749134476845   17.61167327041527    7.98771949293103
C           3.48947147614654   19.19145288240498    9.30662191362053
C           4.32715469679402   20.06532527696404   10.03279023970964
C           3.73957719319719   21.05652287758365   10.87249988047552
C           2.33427577148277   21.16102874702269   10.97593348019017
C           4.58645594073982   21.92138230555306   11.59584251048632
C           5.94688807131712   21.81304291113332   11.49697473377853
C           6.52391830461935   20.83685441946493   10.67035883533513
C           5.73155499380820   19.98204617838714    9.95336899301193
H           3.60772267488752   -0.54707452952282   -4.62605414445845
H           2.82677774474624    4.13003593916607   -6.17344050122619
H           4.62021395989333    3.89546135092417   -7.78312337113143
H           6.39876856167282    2.54762413329598   -8.82480429131801
H           6.79858319342468    0.23287866029958   -8.08471512139159
H           5.42429885657999   -0.75386936946303   -6.29464754789569
H           0.15210815576676    1.43828980631260   -1.19753554762952
H          -3.63709419731353    7.47730818171742   -0.49826743429418
H          -6.89247632597510    9.34192571474916   -0.57579087242364
H          -5.60739781663045    8.21106385854329   -0.10718474464272
H          -4.17602360589015    9.37737055471616   -1.67120968111688
H          -5.43546354065324   10.31489695680187   -2.14044500925997
H          -5.56725532232601   12.32545832979480    0.80855710073186
H          -6.59340795681589   11.33781545000872    1.86406002451617
H          -7.05291440365188   11.76081376106845   -0.98976033654643
H          -8.00178562526989   12.19813107533766    0.27129011882185
H          -4.74717771341095   12.69495900388706    2.84084623153359
H          -3.73080293071645   14.22546624613021    4.60937242422556
H          -1.08870264737730   13.13114214813854    5.69629608473906
H          -2.31830776384975   18.87337415973612    9.41505372987622
H           3.91623233914120   18.43296750233958    8.66710233076810
H           1.92081851770620   21.91866896175058   11.62262153976333
H           4.13818199336774   22.67097526521414   12.23109038203241
H           6.58688300436494   22.47891905151036   12.05603848553205
H           7.59923508673633   20.76561031541076   10.60517843971948
H           6.16971192287408   19.22846420316725    9.31560457930080
