128
 SCF done       -241.953242595210          0.000466571742
C          -0.95948418039070    3.57250991724985    4.88906516438414
C          -1.45513667733464    3.05790894907586    3.71960929096917
C          -1.38126470301584    1.69346462418096    3.37018925452576
N          -1.32895897461553    0.60154771619616    3.01868728961289
C          -2.16623552147291    3.78791109388875    2.74507522810313
N          -2.77692997539074    4.29887857785945    1.91748353293736
C          -0.46200504316613    2.78144808291874    6.01022315050165
C          -0.44618825484655    3.60120816516756    7.17669018835077
C          -0.07777682845010    3.10958620815182    8.39548458084131
C           0.30638743173394    1.75416695681602    8.50549659794563
C           0.31541285588181    0.93519434965203    7.33975790602784
C          -0.07436748020632    1.47055473076341    6.09077113924468
C           0.70738847830643   -0.41359705911383    7.46067513245495
C           1.06649450451199   -0.93227218010141    8.67473555895379
C           1.05382212291202   -0.12595406984133    9.82269267213386
C           0.68283433718571    1.18866390505004    9.73960235272352
C          -0.86026132770590    4.96929935972724    6.81792051438942
O          -0.96774583903471    5.93126769367699    7.54271540484523
C          -1.04931502046525    4.94644675818687    5.33995144668518
C          -1.22010347787860    6.10759496461845    4.66203510871008
C          -1.05057749446589    6.33116034330606    3.26422631986887
S           0.31592169374858    5.62916031807349    2.45409831048991
C           0.02322189416877    6.49533872199342    0.99654864964843
C          -1.15110092244873    7.25221684036372    1.10376907958929
C          -1.76083544436227    7.15629733880294    2.39985071843802
C          -3.01579602933849    7.80271292116047    2.63219471839123
C          -3.81355661672823    7.47350980759217    3.80417913853824
O          -3.71452466516533    6.48347147467623    4.49022945290031
C          -4.94139443917933    8.48665688864449    4.17458264045254
F          -4.52191944381676    9.76416412679116    4.11257066372769
F          -6.01277425433011    8.39474870109453    3.36791928050671
F          -5.37099306519236    8.28158462143582    5.41669857008387
C          -3.54149404905468    8.59513459338430    1.62510342789834
C          -2.93348466855545    8.68233672647556    0.36894274513649
C          -1.78362376252643    7.99128528298739    0.08951381213745
C           0.94495479187642    6.40139358416577   -0.10331632248490
C           1.17136979480337    7.47076094288450   -0.94126630509533
C           2.04069204602758    7.33338876664481   -2.04029056237164
C           2.38354691615189    8.22658691842444   -3.04554693896300
C           1.90909833259673    9.63469268936737   -3.17073662644357
C           3.07599951170694   10.63241337184124   -3.07899244971382
N           3.75529305140399   10.47831558756120   -1.80306032442117
C           1.09325177645876    9.86695395209475   -4.45492728290631
N           0.46648226007380   11.17733948898817   -4.40888602517777
C           3.27927251406543    7.52510503610657   -3.93376050786402
C           3.86599441755322    7.88218126997342   -5.09211090252077
C           4.71748314539433    6.93883630405237   -5.86514924910991
C           4.97145109156624    5.62154416057735   -5.19432374420817
C           4.36981127989872    5.27396344965333   -4.04229308114938
C           3.49022461794604    6.17164846595504   -3.39164228563962
C           2.72363932050161    6.06423207698238   -2.24961379527044
C           2.51760875172595    5.00408410601050   -1.33643308351811
C           1.65749398286722    5.17143649059584   -0.30202589743152
C           6.03218078749743    7.56711657965984   -6.23518506557898
C           6.65211034436825    7.31182897226036   -7.38946611113688
C           7.91107918037787    7.87380924120563   -7.78490493118948
S           8.33783506391044    9.46386766177570   -7.27346167945571
C           9.66759894166915    9.56687885990339   -8.38426288904245
C           9.84155876345179    8.33997561336898   -9.04501216685677
C           8.85288960503624    7.37018859264373   -8.68698373558116
C           8.94247187678138    6.05497271120798   -9.23952170208749
C           8.16675037663671    4.95265757263430   -8.68891048373867
O           7.72989969719228    4.86845849488854   -7.56454285888995
C           7.91777068208712    3.74456554261095   -9.64444389377910
F           7.63304310044951    4.12829747327799  -10.89962699934251
F           8.97371817692628    2.91801850988879   -9.71872454159738
F           6.88239815042735    3.02135484621378   -9.21684631774746
C           9.92590009565764    5.80312863933964  -10.18380177168243
C          10.89123447617335    6.76049307346218  -10.50850634372366
C          10.88557024318211    7.99841807059110   -9.91957326452102
C          10.36219577836940   10.78533348112176   -8.51209578279075
C          10.89858661127657   11.29667831830474   -9.66466626270888
C          11.70612492653614   12.49517260306751   -9.75892951824718
C          12.38895371890259   13.08860479184679   -8.72785833977642
C          13.18623316035958   14.24207734768160   -8.87131009479006
N          13.84012787171226   15.18410432412771   -8.92867341297962
C          12.41375167428349   12.59937777280235   -7.40564103440975
N          12.49240796713509   12.23649251302614   -6.31872451195929
C          11.74140489773337   12.90208273665263  -11.15793080228666
C          11.02174799596414   11.94075121169148  -11.92386072998139
C          10.49387325785425   10.89219145285484  -11.03435764329358
O           9.80129540284834    9.94812671799039  -11.35899753759936
C          10.88036810799481   12.05579844558572  -13.27643592996038
C          11.46563375001651   13.15860405805469  -13.93859127484206
C          12.18278437926108   14.12740122540814  -13.17889289619123
C          12.31150591523180   13.98159297064036  -11.77782035677093
C          12.75558836525567   15.22682633821870  -13.84934395404446
C          12.62883651106271   15.36387114306062  -15.20522414869081
C          11.92383326494069   14.40878433764730  -15.95223824097866
C          11.35514911702538   13.32903460188139  -15.33233396791947
H          -0.08347381270771    3.74647720433379    9.26754580583136
H          -0.05113858873284    0.82836218528443    5.22436113665603
H           0.71172165834867   -1.03128049395579    6.57451647943179
H           1.36113776887765   -1.96774953128682    8.75772252161588
H           1.33913753035165   -0.55185909726458   10.77305521767574
H           0.67112008102160    1.81436295857374   10.62009707079775
H          -1.40632323212285    6.98298792656235    5.27750408071336
H          -4.48344466270447    9.10120810585292    1.75775366626995
H          -3.41789419068826    9.26076355052557   -0.40235965683260
H          -1.38127266098231    7.97769741419872   -0.91104254680524
H           0.71784431702560    8.42747284062252   -0.73332249228720
H           1.24304215198858    9.84218844603308   -2.32531214245402
H           2.66558418422948   11.64014889497230   -3.24973149135627
H           3.80679384763998   10.42388550574443   -3.86289142846233
H           3.12663204707329   10.70376535295586   -1.03898844232478
H           4.54679302818338   11.10922871315691   -1.74667997441511
H           0.37145338841040    9.03883656584905   -4.56329096868923
H           1.75201309181128    9.85079836853332   -5.32523232651193
H          -0.22085138297313   11.21458701784244   -3.66302384890234
H          -0.01293516371843   11.37365508597573   -5.28017707897357
H           3.73758856736926    8.86291325049974   -5.52738018617850
H           4.18280907926467    6.72056659001124   -6.80465044516689
H           5.65896743690412    4.96435903554894   -5.70322996873818
H           4.55253863283793    4.30643723592546   -3.59832676350589
H           3.03811161052918    4.06878554335415   -1.47699194678494
H           1.47117670562323    4.36683300090931    0.39449721095081
H           6.49757758797328    8.18640214862599   -5.48129734400565
H           6.18622707144167    6.65172504023208   -8.10900843538172
H          10.02058098925760    4.82473667384818  -10.62655730465478
H          11.67234954857281    6.49637396263402  -11.20386001156242
H          11.68249082515650    8.70092323128432  -10.10232504497462
H          10.39217496802486   11.39860697197197   -7.61880671409809
H          10.32918543562681   11.31368072166881  -13.83482277331604
H          12.85340378325978   14.73512881938642  -11.22844224038144
H          13.29854646066436   15.95925036209360  -13.27020528280346
H          13.07163529449025   16.20964087823904  -15.70946113396126
H          11.83285939028113   14.53265597380252  -17.02097118439100
H          10.81036221521408   12.59049258709794  -15.90216647403373
