128
 SCF done       -223.654912686563          0.000823601901
C          -8.61188748108758   14.23797395017966  -12.16654556657389
C          -8.27372431308394   15.52478264473015  -11.82666658511922
C          -7.86905172339300   16.50054141874475  -12.75797302768240
N          -7.52240700922536   17.32521795823509  -13.47809946394771
C          -8.38500915092995   16.02881660400413  -10.51686528394261
N          -8.49336290586658   16.47409593195541   -9.46398899143109
C          -8.76155305056744   13.74026592964491  -13.53132325691980
C          -9.57611519811837   12.57115981055110  -13.49738400792519
C          -9.91011099983628   11.89722241121384  -14.63569757812160
C          -9.42300502273601   12.36115865567700  -15.87924233678079
C          -8.59386376481685   13.51883833810424  -15.91726976908616
C          -8.27387498154408   14.20447730050771  -14.72197454782681
C          -8.10494060247519   13.96309564647039  -17.16213603694083
C          -8.42092797199872   13.29918017838444  -18.31625620718670
C          -9.23915347869863   12.16068523037986  -18.27830845134686
C          -9.72988051031616   11.70221347199078  -17.08577929593161
C          -9.91820386611694   12.25958433608892  -12.09695137063123
O         -10.63504524348343   11.37615424949858  -11.68192066362409
C          -9.13716403672492   13.22792887899825  -11.28021545491833
C          -8.96688072210418   12.97290661156802   -9.94848777126520
C          -7.96833613499043   13.43118567676873   -9.07089371576775
S          -8.15662978507945   13.10813306376684   -7.34322929344176
C          -6.74446350871030   14.03243653076872   -9.34311858299700
C          -5.98389513663599   14.22782076760293   -8.20170495161232
C          -4.67589880716185   14.75122920085866   -7.85846890354740
S          -3.55083888295247   15.36836678384445   -8.87056873465771
C          -6.62713246463389   13.77959265046931   -7.02386794260725
C          -5.75736915924486   13.99663500568652   -5.93344784303170
S          -5.68471117921090   13.70374280327107   -4.25047283044556
C          -4.57008391928425   14.58126899436217   -6.41570555807778
C          -3.61522753994166   14.78081096407437   -5.42661233087185
C          -4.04736690475033   14.34387772695390   -4.18158396083401
C          -3.33781911321216   14.26033351301074   -2.95543983016326
C          -2.05560474862157   14.66146308348146   -2.78286880523512
C          -1.22989250727814   14.41848493844545   -1.63489485668674
C           0.11017636813316   14.74492571376011   -1.71594623654006
C           1.00665103212745   14.34403267004576   -0.70866870739457
C           2.38964522854954   14.44554090134162   -0.61081161887529
C           3.36542336737256   15.14844997916750   -1.49055295559760
C           3.77820508962042   14.28603144239597   -2.70489514706579
N           2.62820601636417   13.96758626855028   -3.52952728606546
C           2.87689280448049   16.52130071435590   -1.98326197416501
N           4.03148385744076   17.34720269778924   -2.29908727771074
C           2.77708876727436   13.66640754035961    0.54267263677912
C           3.99126486116884   13.29191818742524    0.98537819035764
C           4.13560436596206   12.31461370489050    2.10412040118437
C           2.86949442014779   12.02456266514590    2.84174394354972
C           1.66256672278640   12.40371287928191    2.38170000182786
C           1.55851561879822   13.17324358561302    1.19763888702884
C           0.49156596549772   13.58731006796985    0.42813743914649
C          -0.90152176916458   13.36412772050584    0.53978706464250
C          -1.72824509743633   13.76729304808255   -0.45569028310305
C           5.33555678144780   12.63418954407907    2.95028568929397
C           5.32786893776557   12.88406931586488    4.26194736886321
C           6.51505211340657   13.08262938172061    5.04256976777311
S           6.36601240589900   13.22309063865848    6.78770425386195
C           7.83269504963140   13.10911270832716    4.63576904028068
C           8.71624955423255   13.22321052288262    5.70946250573656
C          10.15263451434028   13.24493531273776    5.91769178388958
S          11.32261844608879   13.19257575349232    4.77653106825616
C           8.06549157329152   13.28859723376439    6.95315991693345
C           9.04967363381367   13.34268815145442    7.97161363255219
S           9.15334801219868   13.38934705820162    9.67141037966223
C          10.32165314177670   13.30723117644075    7.36133424165691
C          11.36582313533250   13.30454208525166    8.27523255959171
C          10.91551809915973   13.33836462570979    9.58970605491881
C          11.65892261680448   13.29958772168624   10.78777646701606
C          13.01535670457823   13.17386319109166   10.85193644383884
C          13.69495189293049   13.08529323021880   12.08198588576092
C          15.04558963813909   12.89669079237632   12.21276791815621
C          15.78623144632857   12.75850555660026   13.45016488472825
C          15.29251246693712   12.86385208240100   14.72670844329635
C          16.07234093685007   12.71457457728223   15.89193261927194
N          16.64334673654448   12.60437077409507   16.88246687558854
C          13.95433298273329   13.13980106478605   15.07306632086032
N          12.88974661859499   13.36281379408512   15.44378983716057
C          17.17959975720017   12.48854801282237   13.10783946782939
C          17.30826327391725   12.49151090919740   11.68997388424346
C          15.99360609754822   12.75574379561933   11.07952903246784
O          15.75419753169979   12.83398117933019    9.89099071952395
C          18.50323978817849   12.26373808230989   11.07166811779223
C          19.64926872898349   12.01137451636413   11.85867614265772
C          19.52950258060799   12.00308223378897   13.27801082303937
C          18.27812195434198   12.24740789426367   13.88968608365904
C          20.67757044128987   11.74483844303690   14.05421467596141
C          21.88615559579657   11.50548451819451   13.45889329065311
C          22.00291367446978   11.51461040430714   12.06104353231371
C          20.90822981025109   11.76277123652226   11.27801056953798
H         -10.53512977473237   11.01774469752210  -14.59012086159768
H          -7.63723110888868   15.07390026214570  -14.77722730291638
H          -7.47755545342451   14.84207665132244  -17.18649176235475
H          -8.04187963127039   13.64830082817124  -19.26514346480804
H          -9.47812905575486   11.64803531731414  -19.19816370544816
H         -10.35981054585214   10.82527877327091  -17.05023488733918
H          -9.65016358868588   12.23278123823997   -9.54227697545281
H          -6.40368546368537   14.26021820639254  -10.33667094390976
H          -2.64429507859804   15.20344829543869   -5.60596781923527
H          -3.87769704228651   13.78985013645583   -2.14593446688677
H          -1.55308942579242   15.14620523094069   -3.60927262200405
H           0.48958684905525   15.24127776199341   -2.59453740582703
H           4.27784977355231   15.32120597794426   -0.90840106496718
H           4.30999508717610   13.39194982272763   -2.33620638523801
H           4.47064615802240   14.88254037881780   -3.30258588965346
H           2.03168829930453   13.29303780512405   -3.06201008223222
H           2.92330778362775   13.57000455015588   -4.41328852598738
H           2.21394928636525   16.96736926067885   -1.22359711649952
H           2.31090957323951   16.38464279817000   -2.90505039677516
H           4.51568535091627   17.62180362285811   -1.45016504585532
H           3.74312658203195   18.19319940138927   -2.77684493950061
H           4.90443043835593   13.62752813335217    0.51282746551885
H           4.40341490591981   11.36507546665490    1.59612786607845
H           2.96215483701729   11.41232135095306    3.72526114834438
H           0.76038907081732   12.12373341334868    2.90575129318835
H          -1.28846853796088   12.85473487143617    1.41021630949333
H          -2.78816978380060   13.58600546872402   -0.37359933983775
H           6.27164359809474   12.63066789345508    2.40940330665189
H           4.39613906763603   12.90727801445333    4.80944667920384
H           8.14699086725081   13.04067432041444    3.61119937820223
H          12.40598221008081   13.27271945446742    8.00833598119678
H          11.09295612512483   13.35064270002741   11.71026437820567
H          13.60153395444514   13.11645719201756    9.94841836570166
H          13.08838195482095   13.15062629035389   12.97622148208797
H          18.57263088368228   12.27244857741780    9.99392083730381
H          18.22260943564236   12.23307380118242   14.96645921103900
H          20.58275170078004   11.73916342023080   15.13024549313892
H          22.75939736283504   11.30747579675721   14.06236132113284
H          22.96421952476400   11.32361818088898   11.60772685587302
H          20.99178130072391   11.77083605576524   10.20096006349716
