124
 SCF done       -226.898973186854          0.000709694185
C          -5.37389977580856    5.87960994058412   11.43318024704348
C          -5.95052269517078    5.03316389591441   10.51877124358003
C          -7.33728233733966    4.94486227791491   10.29515901400613
N          -8.45632840467346    4.85460979716419   10.05287296846710
C          -5.21633250605238    4.08550961265221    9.77881850958932
N          -4.65844753084290    3.26758004966609    9.19661044622911
C          -6.09211230034103    6.61918502905455   12.46597372596490
C          -5.17669724168084    6.92645478996679   13.51494241347234
C          -5.57673309090325    7.57315104672350   14.64773116701044
C          -6.93025803215524    7.95976903271894   14.77935992034156
C          -7.84538855636295    7.67206194151762   13.72604028600116
C          -7.40451154940712    6.99183156389797   12.56689740829394
C          -9.19001807951255    8.07007841160451   13.86788199232089
C          -9.61396696054511    8.71698356684022   14.99673032635751
C          -8.71287579344912    8.99750696880807   16.03433938744915
C          -7.39974172389574    8.62682348338585   15.92775376432314
C          -3.82934644842898    6.45341859189185   13.14151028986073
O          -2.81445838452551    6.49943144863429   13.79799348217908
C          -3.96638503622063    5.96366507007500   11.74214582611921
C          -2.84768792519166    5.79843468550266   10.97863322901398
C          -2.71068175867742    5.78473772246629    9.57949885360022
S          -3.91349121630894    6.33957678974001    8.42466463135992
C          -2.91087525633843    6.07068101742011    7.02494533875634
C          -1.66554851398571    5.58130082927148    7.44357127323638
C          -1.57429505412581    5.45009323833620    8.85643908022007
O          -0.37428315710821    4.97697394388156    9.22325416463674
C           0.31223649123471    4.79698905805482    8.06133218633397
N           1.63353519027367    4.30254394830578    8.12818723962731
O           2.20730644175115    4.16295455658326    7.06167104004988
O           2.10060671311463    4.05754442929344    9.21896013084703
C          -0.41405488803437    5.14381919269820    6.94992089603259
C          -3.44141749119035    6.32732240103626    5.74831818288249
C          -2.76437175569549    6.17217074255020    4.57789628729008
C          -3.30205242967499    6.34929660344118    3.26445164781876
C          -4.61975086598595    6.70805928898321    3.04262682391120
C          -5.12511055831206    6.79327292879582    1.73500797222920
C          -6.40047693508042    7.08887870649945    1.25779193432875
C          -7.63141230226804    7.49583936048615    1.99523074596582
C          -8.28106412508010    6.33757398595939    2.78848756120459
N          -7.39890931737664    5.80150514516667    3.80857566270881
C          -7.37676541241234    8.71354498997509    2.90095615426599
N          -6.95282821143001    9.83480361031990    2.07908085915399
C          -6.33517215339023    6.97021092544381   -0.18154236467158
C          -7.29007480961059    7.09895819146127   -1.12008199963661
C          -6.99224996722011    6.89449479072773   -2.56844291522261
C          -5.55824085332400    6.61290129199101   -2.87674610889545
C          -4.62042813068429    6.46712120309090   -1.92349076825236
C          -4.95877105182742    6.62087295931669   -0.55620738231591
C          -4.23527552839584    6.51219596104159    0.61171694655355
C          -2.88131224208776    6.18228245396131    0.86324420973132
C          -2.43806657224044    6.10538339761396    2.14107179755683
C          -7.57812265697664    8.05254433251623   -3.32955702467134
C          -6.87434519380863    8.98057182165913   -3.98382592718502
C          -7.47504695683585   10.07153668886694   -4.68480165619795
S          -9.19631638607170   10.36622107089474   -4.70925240910321
C          -9.07892026565492   11.77838000496846   -5.73396883532859
C          -7.73436920593196   12.00156006964215   -6.03935512425271
C          -6.86241976923769   11.04574705965120   -5.44475121733348
O          -5.57823278854564   11.29994613037253   -5.76946366233735
C          -5.62336122910380   12.40476107247191   -6.56194097412472
N          -4.39776247868004   12.90734726909000   -7.06381441097639
O          -4.46874964704702   13.89887234913988   -7.76452623864613
O          -3.38052563282369   12.32084447748005   -6.76517374567614
C          -6.89374810217773   12.87932885314465   -6.76516970146632
C         -10.20560315698132   12.51424473895094   -6.13707575983312
C         -11.48211925825949   12.21880065574490   -5.75658474442026
C         -12.58999327622030   12.98025453122975   -6.17505307117445
C         -13.88467655657591   12.73717022384746   -5.80166881364229
C         -15.06008560463901   13.48804336421714   -6.19837558275693
C         -15.10656440884991   14.55588722180950   -7.05899945355490
C         -16.28960261947766   15.24171988509745   -7.40578026380660
N         -17.21162712709174   15.84261454839214   -7.73293115158367
C         -14.00260674006638   15.12477739284723   -7.72663156453749
N         -13.15814893551930   15.64456252343627   -8.30699623074636
C         -16.21291590037069   12.90066529024853   -5.52304635998168
C         -15.76853081985065   11.79815107152448   -4.73887270525992
C         -14.31176183120052   11.64669689246047   -4.88560397742248
O         -13.61643422548143   10.80186163662032   -4.35827261016102
C         -16.63011903153499   11.04999826927130   -3.98960205173616
C         -18.00452784166638   11.37640143936236   -3.98806588134503
C         -18.45811085128131   12.47822148810940   -4.76917822609563
C         -17.54160926740122   13.23413031293694   -5.53597745340561
C         -19.83131749685793   12.79679915051686   -4.76026518265982
C         -20.71522291430094   12.06372133622468   -4.01602186995610
C         -20.26735605817714   10.97919784974513   -3.24711010433093
C         -18.94081505945175   10.64272326183487   -3.23355259546350
H          -4.87078034633813    7.78685603508781   15.43641293191267
H          -8.11512870807448    6.79058208534645   11.78018442625365
H          -9.88110573124645    7.84837205662900   13.06779578191259
H         -10.64692365093826    9.01524731311067   15.09674655209422
H          -9.06395209515435    9.50872498361331   16.91826031121560
H          -6.70112319173774    8.84027179795379   16.72352457241970
H          -1.90984788789902    5.75716623102578   11.52544940587307
H          -0.05950100945995    5.07380363897269    5.94282214704132
H          -4.47265615437139    6.65035008815291    5.74167236639654
H          -1.72977273201034    5.86368539253059    4.62434872867802
H          -5.28646147430958    6.88154873584709    3.86997163934640
H          -8.37071918460651    7.81645143944947    1.25484464774717
H          -8.61141600476561    5.57571854893568    2.06381101213441
H          -9.16912470535397    6.73791856417581    3.28371312003883
H          -6.74064577367871    5.14717223322086    3.39987736031531
H          -7.92843286095280    5.30657211705175    4.51614349727564
H          -6.66144882362562    8.44556113551056    3.68887195389358
H          -8.31769598168838    8.99480866863043    3.38177504596940
H          -6.06400781982103    9.62453530799274    1.63556564257917
H          -6.83035807517531   10.66497999277288    2.64769369703586
H          -8.31061631715861    7.35516019029648   -0.87126584502134
H          -7.57196349943334    6.00628358095927   -2.87909737650552
H          -5.31615276211534    6.49262445411596   -3.92161975858439
H          -3.59889657170709    6.23542279096883   -2.18664098462901
H          -2.22022390543376    5.98576564190623    0.03240532087357
H          -1.40966348795353    5.84430031143376    2.34380786089463
H          -8.65781762812181    8.12693622250881   -3.30174551156705
H          -5.79448219407059    8.94499943138517   -4.02355104130949
H          -7.15631316796711   13.73370544306957   -7.35414108404539
H         -10.01758890117837   13.36217524133027   -6.78411816795981
H         -11.65863905504928   11.37336257702422   -5.10612337200138
H         -12.38242569663914   13.81467392309259   -6.83237059917820
H         -16.26606420839328   10.21903822412106   -3.40364252398016
H         -17.91873688099037   14.06204745443155   -6.11465134446315
H         -20.17150485298500   13.63261716105912   -5.35382922312086
H         -21.76504124175760   12.31579003667324   -4.01566408379044
H         -20.97857734243903   10.41184071792852   -2.66562726514212
H         -18.59001068295552    9.80870107120838   -2.64337899774799
