116
 SCF done       -195.144783578179          0.000818285839
C           3.26826049263921    7.63934476699614    3.59616274999446
C           2.72247431557443    8.71313740261307    2.93124011265618
C           2.32695633037544    9.90662475836771    3.56191532044691
N           2.01469392086471   10.90836652490571    4.02935193149167
C           2.40222486051819    8.68624455965200    1.55945007997941
N           2.05448539585562    8.67730743854121    0.46466337250765
C           3.32348963236027    7.47399936700485    5.04549779899900
C           3.51945983882377    6.09093217630801    5.33178430347027
C           3.57515943920100    5.62620968043026    6.61303138987950
C           3.44323212284840    6.53976541224801    7.68452927756542
C           3.25909791462667    7.92401539718712    7.40432473018323
C           3.19971780886419    8.37690384370987    6.06532017916383
C           3.13134254518095    8.82388935325709    8.48111690746233
C           3.17995158606728    8.37979856377957    9.77467444305360
C           3.36143457139047    7.01679475640812   10.04991654405446
C           3.48998988299990    6.11660914601027    9.02703047990015
C           3.64542530433584    5.34543025998039    4.06338073051042
O           3.77535564780093    4.15168615211200    3.90785994675571
C           3.64055629577944    6.38296062440580    3.00086673790896
C           4.01568057766935    6.06930169193939    1.71991727841374
C           4.50806459819893    6.94372362537649    0.73600596165607
C           5.14418193002656    8.23471620395835    1.01684752728979
C           5.59274341238776    8.79156991259432   -0.11490674872220
C           5.25103980922030    7.91291734303761   -1.24985790965558
O           5.47268895066067    8.12479111460795   -2.42067024998435
C           4.57615609336652    6.71438864517193   -0.63658162924342
C           4.03688613560867    5.62899521686781   -1.34226529555975
C           4.12487464590328    5.50399589922438   -2.70077215972950
C           3.56176805249569    4.48586632071359   -3.51963423655989
C           3.76506501785156    4.58270923325125   -4.89135282541531
C           3.13256664720976    3.70078469620009   -5.77250562416412
C           3.12662290763121    3.62871842105102   -7.16647525641572
C           3.92499541842811    4.38087891170261   -8.16518478648334
C           4.13402775842789    5.87166034247269   -7.85444288492621
N           4.42706001976848    6.56986645163558   -9.09614612327272
C           5.30879490128625    3.70081219338755   -8.35250355743229
N           6.02472915285846    3.64202503031498   -7.09528330024769
C           2.23610671003855    2.55085983198773   -7.52019403321821
C           1.87712060458759    2.05891463952355   -8.72201443258268
C           1.02100278137501    0.84743780672809   -8.82494519877769
C           0.33208376198716    0.46472541143771   -7.54935773027165
C           0.70218978484476    0.96466990009071   -6.35403582652272
C           1.68800967080025    1.97884019110071   -6.27990911799558
C           2.25559280325394    2.66971852731979   -5.22859267159637
C           2.13423487356128    2.53250794605849   -3.82465870171346
C           2.76741106777339    3.40697135590722   -3.00378579032692
C           1.93373606344754   -0.33531322566545   -9.11386367202327
C           2.97895190522959   -0.59751446064828   -8.31438292906181
C           3.85106250586478   -1.71720336517599   -8.37547954103351
C           3.99384830939329   -2.65061460470886   -9.49479183944386
C           4.89121288509866   -3.59724134848452   -9.19323655265194
C           5.40423348383073   -3.35220321833697   -7.81758100493112
O           6.21996780144776   -4.01414826090385   -7.22103713462112
C           4.69170226205808   -2.11962376547495   -7.34919253701843
C           4.79558673807191   -1.52184092941005   -6.07862566675414
C           5.46495967711214   -2.05089475099551   -5.01274141169604
C           5.49592236668696   -1.48486124769715   -3.72154378204522
C           5.35711537328988   -0.17805673583700   -3.32228284514198
C           5.37835155978046    0.22421399143865   -1.92670723476131
C           4.98948715658357   -0.55265656445832   -0.86752010099031
C           5.04452819856977   -0.13761933844518    0.47893581200056
N           5.08606317683063    0.13652336173817    1.59285046338952
C           4.44135777846348   -1.84679165875236   -0.99303499366519
N           3.95469812206994   -2.88643282985700   -1.02367365020334
C           5.82592621008411    1.60717167723303   -1.86654608738252
C           5.95261305524278    2.09007826004494   -3.20105697427422
C           5.51704705569485    1.04333303778717   -4.14327979988373
O           5.35252825605220    1.18512643159260   -5.34227389587582
C           6.44872752191689    3.33389130539747   -3.46851611347275
C           6.84717798755927    4.15988091575169   -2.39166423302926
C           6.67288309401618    3.70189621875357   -1.05417486588017
C           6.15088778759814    2.41076910744214   -0.80797350291673
C           7.05761122459710    4.54248363472363    0.00863830718260
C           7.61643861088923    5.76779985848859   -0.23637019697159
C           7.81278994185175    6.20738514732203   -1.55328899550903
C           7.42675926431304    5.42482110935143   -2.60766722902562
H           3.71570494634559    4.57380493291271    6.80968666726211
H           3.06480880624628    9.43139687023310    5.87996387420397
H           2.98878997599768    9.87243201632955    8.26370948624351
H           3.07839896379547    9.07710415965546   10.59270298459834
H           3.39842360723042    6.68315865160924   11.07623086127128
H           3.62996884535171    5.06548748556016    9.23319335306127
H           4.00869763556604    5.00943453929036    1.48638467709934
H           5.27454401936158    8.62155548565310    2.01234132869095
H           6.11929820648297    9.71969213171943   -0.23129079268948
H           3.52642419172321    4.87487661481247   -0.75695796306519
H           4.64840115750672    6.28609840604445   -3.23232772294022
H           4.40365782097298    5.36132453680101   -5.27258852959940
H           3.41601718448511    4.32055293162630   -9.13332657920927
H           5.00572057831387    5.97873184262659   -7.20800469406750
H           3.24794019505903    6.26622395895905   -7.33084776797323
H           4.74146082312783    7.51441040920283   -8.90694537324687
H           3.59669670698623    6.63102821158135   -9.67667397148660
H           5.87211342924556    4.32127596745534   -9.05324288564932
H           5.14573159548047    2.71000861657693   -8.80749967956811
H           5.66695336254853    2.88261918490884   -6.52016431055263
H           7.00914146786587    3.46680697355106   -7.25991355342744
H           2.26267073374621    2.46130017101910   -9.64824917993262
H           0.30321624078707    0.95292625685240   -9.64353071083093
H          -0.41809856067196   -0.30652234640193   -7.62659765031824
H           0.22974745877965    0.62441537278537   -5.44422494869355
H           1.53092699112504    1.73182375008194   -3.42142844375174
H           2.66845020325916    3.30504229559686   -1.93423461743624
H           1.65058616467926   -0.98979721839941   -9.92383903662872
H           3.16695706738811    0.08679203339079   -7.49688306746036
H           3.45075651888025   -2.55062688922573  -10.41767527059788
H           5.22626914184124   -4.41500416691667   -9.80263623605089
H           4.25071907003963   -0.60126955423260   -5.92924870852003
H           5.93125432239647   -3.02018550982993   -5.12296706099373
H           5.71935889939907   -2.19460405004214   -2.93141503579583
H           6.55369431146995    3.68341012875016   -4.48491819944245
H           6.05207704682419    2.07724676381723    0.21334588029469
H           6.91059289765524    4.19684645209965    1.02155810618077
H           7.91383661183314    6.40265181262729    0.58523144946464
H           8.26478779575183    7.17142397001721   -1.72979207810129
H           7.56395219744434    5.76559200351795   -3.62283410655594
