104
 SCF done       -184.886138036556          0.000765901367
C          -4.02236121113184    8.13574696729447   -5.39674206284172
C          -3.37650900424781    8.49886155002241   -4.24191686099973
C          -3.12121254068949    9.82065390299139   -3.83546222770599
N          -2.90160645294259   10.86643308078083   -3.41239989181811
C          -2.82215978624486    7.57674314847257   -3.33516853872536
N          -2.31428181296533    6.88920409370015   -2.56603719975222
C          -4.33634508256062    9.01555992755370   -6.51261792119872
C          -4.58472532710112    8.21325346482652   -7.66603713414960
C          -4.86143473330950    8.77325888905251   -8.87912069924707
C          -4.91227389553206   10.18177000158475   -8.99369192996407
C          -4.67776415211098   10.98744643828167   -7.84179176430461
C          -4.38589455513497   10.38071613433838   -6.59835115718602
C          -4.73692711268404   12.38974291034171   -7.97105675331192
C          -5.01105758645179   12.97103061177336   -9.17923446758252
C          -5.23956876688872   12.17740810869259  -10.31281900833288
C          -5.19099731575481   10.81248596633251  -10.22174502819241
C          -4.49572021976764    6.78643724753486   -7.29971365252644
O          -4.59547105550623    5.82101239129806   -8.01977633508200
C          -4.30908776975163    6.78274562342744   -5.82064328766170
C          -4.56061113519629    5.66870110627264   -5.08589517634375
C          -4.76428369462117    5.65659741821299   -3.67853241716135
N          -5.45005295195909    6.64576030253758   -3.03773033527966
N          -5.16939573896188    6.77814680873334   -1.80302096509541
C          -4.43619584711742    5.90675303865966   -1.14019935664316
N          -4.43432961308583    4.64562521886954   -1.67113894065348
N          -4.49521524143572    4.59049890527889   -2.92948480672696
C          -3.74221084531083    6.25049581481043    0.06572123975232
C          -3.54760371160189    7.58435714961301    0.34463865384710
C          -2.73313805949701    7.94961748950506    1.42872140592255
C          -2.31220635462866    9.20098226972483    1.85932790782583
C          -2.63963700101470   10.48680654108021    1.18369020151103
C          -2.94167223945288   11.65032454372961    2.14255810940983
N          -3.87927475538827   12.54991130624996    1.49705269514377
C          -1.50551190730624   10.85222916891925    0.19777727802109
N          -1.88314360620102   12.00181091658903   -0.60705792119058
C          -1.42613376406855    8.96874459334930    2.97975561461687
C          -0.70652908919082    9.81132428886308    3.74248561485396
C           0.18158327134512    9.31436549910101    4.83732473424943
C           0.17363647481026    7.83250922164516    5.02727317000657
C          -0.54296143706997    7.00202846920000    4.24987039471852
C          -1.35317879282649    7.51444838429873    3.20781939064368
C          -2.14345178046632    6.90485748756934    2.25719827677536
C          -2.40290653789434    5.54358864457062    1.95954921627882
C          -3.16650223401775    5.22700576323180    0.88467159383576
C          -0.14374488499188   10.07665469765073    6.09367463727938
C          -0.78027330634228    9.54904259774478    7.14057316425796
C          -1.04135816483326   10.29150170995138    8.34259825529316
N          -0.54289629438835   11.48838797289573    8.57683827058810
N          -0.88452316897445   12.20265076220637    9.56792084457028
C          -2.00855472122248   11.78616102431474   10.22038955956342
N          -2.21595216532529   10.47572431698877   10.22589591337080
N          -1.66635763741426    9.69452089923029    9.39475438631121
C          -2.78238235463703   12.65578325393688   11.05049136832340
C          -3.22661310967524   13.86705324505973   10.63586545016777
C          -3.89105896476556   14.90250519738420   11.40790341453445
C          -4.25618939132967   14.83286087480252   12.72597916952970
C          -4.90494914246067   15.87325394686629   13.42445248639856
N          -5.43236066968344   16.68082453512242   14.04698700134491
C          -4.04978244251132   13.71657213411450   13.56359540601898
N          -3.90933780437129   12.84882402468254   14.30200293749248
C          -4.09052468102695   16.04398217753132   10.52306776235498
C          -3.63048382422875   15.70560720141704    9.21624911811711
C          -3.12980831299060   14.32395243957309    9.21995155855132
O          -2.78267877443663   13.65401059451040    8.27084918280122
C          -3.69794204369970   16.58959823468505    8.17769642710785
C          -4.22926312358730   17.87937802644464    8.40223432842868
C          -4.68613267075966   18.22712717426591    9.70646025454467
C          -4.60951826327704   17.28956817227318   10.76144491738498
C          -5.21449791047133   19.51654014739785    9.92010305567980
C          -5.28998282544646   20.42043785481807    8.89547258608455
C          -4.84082692795853   20.07692586031732    7.61158276440561
C          -4.32126119288278   18.83384790703895    7.37026304891135
H          -5.03879295117424    8.15101891960298   -9.74366421994782
H          -4.21787577378582   11.00993673730833   -5.73749270359581
H          -4.55859153385888   12.99706756641602   -7.09573804374025
H          -5.05309087786344   14.04631545363667   -9.26776598787793
H          -5.45463684252453   12.65219243899702  -11.25838516860558
H          -5.36649338579143   10.19625291498738  -11.09136268609215
H          -4.67580741300804    4.72931337358763   -5.61117231428370
H          -3.99679567668124    8.33410252062966   -0.28944548435747
H          -3.54926440073717   10.34093818344239    0.59251872619749
H          -2.00030204619959   12.14913457997968    2.42748699078100
H          -3.41351066299337   11.26329771803643    3.05204880322589
H          -3.45838206845588   12.87942188989813    0.63178902658920
H          -4.06683621084511   13.35194512342945    2.08898815093490
H          -1.27250151313468    9.95786438992734   -0.40453532951512
H          -0.60826782484371   11.11154073013358    0.76892276749290
H          -2.57404573559964   11.72772025014353   -1.30113765451951
H          -1.07888175954956   12.35019281332947   -1.11785177203725
H          -0.73551441228635   10.88144664243251    3.60211571588271
H           1.20836454030223    9.61018130194769    4.56000890586628
H           0.80042883324573    7.45819607568094    5.82213600499245
H          -0.50803777227619    5.93384344653832    4.40541646340191
H          -1.97150933992347    4.77263749711723    2.58032727842679
H          -3.36107352388270    4.20181996671045    0.61169052625381
H           0.16021907907843   11.11423101462949    6.12340391255324
H          -1.12805390595139    8.52668500225854    7.14539269835634
H          -2.99182388773944   12.28400747696052   12.04355729206702
H          -3.34625738159164   16.30898471690389    7.19600084992343
H          -4.96421018113408   17.58314572718166   11.73654871833491
H          -5.55975773587308   19.77556274820389   10.91018855615780
H          -5.69693436135005   21.40531242157433    9.06875892857932
H          -4.90821375191500   20.80237565424704    6.81472765912381
H          -3.97364977514905   18.56440691173350    6.38368646285052
