104
 SCF done       -225.408278651232          0.000677110362
C          -0.07618891760101    0.33946857097286   -2.83732302923813
C           0.72648005857408    0.18974463287125   -3.93113766703574
C           1.12036659592157   -1.06155328644799   -4.45601678638144
N           1.47312034424511   -2.04795431224904   -4.92300409962275
C           1.24470300585465    1.25511634500914   -4.70099768274301
N           1.68305259450689    2.07108703499242   -5.37766906884493
C          -0.68656624313292   -0.72670958357755   -2.05765659926892
C          -1.55324445105467   -0.15174905699459   -1.08031231985662
C          -2.27487922298596   -0.92292982828668   -0.21147188346656
C          -2.15921894218289   -2.32770151829226   -0.27845147878671
C          -1.29177032766327   -2.91078305573177   -1.24910799085384
C          -0.55939588290700   -2.08951101314666   -2.13564258226871
C          -1.18396316705589   -4.31530476168528   -1.30593197450677
C          -1.89781694311735   -5.10700369815529   -0.44768758318297
C          -2.75092235189769   -4.53226450593493    0.50694332720886
C          -2.87920967597575   -3.17234902498388    0.59002360313188
C          -1.52654060971981    1.30634889134675   -1.19527430282198
O          -2.17057191087780    2.11534463105734   -0.56047809047231
C          -0.52764281775955    1.60702187050201   -2.27022083008570
C          -0.08920761492078    2.84503798565758   -2.55462832588307
C          -0.59642731787625    4.03920415779437   -1.89197956357371
C           0.26120076690309    4.88126201248554   -1.17883137982437
C           1.70195460177008    4.60464056669058   -1.01683981144487
O           2.29821635855621    3.64377747209287   -1.40456240818982
S           2.44657170310509    5.94877273367761   -0.10152879766464
C           0.88851363010816    6.84235940623070    0.07855383103060
O           0.81498347524074    7.92815074663520    0.55831982224458
C          -0.18877181664608    6.02378568955430   -0.51987717878256
C          -1.54313410824424    6.34989564272910   -0.47932021234259
C          -2.41113252838394    5.50452312308201   -1.18066735307529
C          -1.94823318453363    4.40685209329062   -1.89672854841630
C          -3.00413608869518    3.66996876769078   -2.63312104933613
O          -2.86971343318181    2.78973137747501   -3.42755791964290
S          -4.59524435067897    4.35324515273843   -2.18586245496188
C          -3.88468982536102    5.63948896053249   -1.15285040248965
O          -4.53979535238521    6.42438701047538   -0.54141512584862
C          -2.03874589576194    7.47956666139795    0.30452214208238
O          -2.69216767058639    8.49213157835713   -0.31774235033245
C          -3.04461305606191    9.32954326517221    0.68510263304902
C          -2.56830330952169    8.76086229648947    1.90126587476815
N          -1.93154936073814    7.58578973024789    1.58299459854616
C          -2.76939372300326    9.36395876225540    3.12957328241939
C          -3.46802128787286   10.56008238566045    3.07478144380496
C          -3.93445256758795   11.11117119333266    1.84283233010561
C          -3.73740204894016   10.52165584512507    0.60947375193116
O          -4.57922066348410   12.25964385623332    2.13571110974666
C          -4.48844022755232   12.37520096171840    3.49342400799646
N          -3.85113897585829   11.40725103913595    4.07562572483576
C          -5.08812128741124   13.51084661029488    4.12875466515591
C          -5.07799755788220   13.65535481056167    5.46193596414008
C          -5.68512857228098   14.75610724295057    6.17962873703171
C          -6.46526602366229   14.51824786904577    7.32812831588672
C          -6.71421345827769   13.17638089795708    7.89576930660257
O          -6.35752310114425   12.11611069206834    7.48545549954059
S          -7.70906891725032   13.34969380934742    9.39276260833235
C          -7.84893640706982   15.12113815234394    9.22393144785133
O          -8.46560003212706   15.82082827127964    9.97171102896984
C          -7.08959579400153   15.54208795533712    8.03066933804232
C          -6.97422722928335   16.88129142817620    7.65497441624830
C          -6.17471307186355   17.12476217180798    6.53704951302463
C          -5.53810479139027   16.11132528884856    5.82518886362008
C          -4.62521405284871   16.62576530672450    4.77781807547813
O          -3.88657542955638   16.02783984050287    4.05958959312896
S          -4.72687654728462   18.42982745952050    4.74001299479850
C          -5.89838806351923   18.49987855919348    6.08158522958061
O          -6.36114809857409   19.50974319312314    6.52381395731238
C          -7.65219342470924   17.95725430155429    8.37869190448920
C          -7.09082085851876   18.55277321505493    9.44066527504030
C          -7.59796386623004   19.61335593649786   10.30327936616449
C          -8.80461862971158   20.23949390827218   10.18500051428414
C          -9.25645717301294   21.26175668754061   11.04856999998473
N          -9.67417703736306   22.09469899853617   11.71758508311872
C          -9.75765394646501   19.94443206331783    9.18529759729771
N         -10.56849881114824   19.74608198689863    8.39851085968155
C          -6.57868546210355   19.86657382127384   11.31139404836542
C          -5.46696276922156   18.99851793087178   11.08754271490938
C          -5.73575447453407   18.15391432277581    9.92208683354974
O          -5.03456174309606   17.30084400773147    9.41919682712653
C          -4.36191856889187   19.02106180751635   11.89187053399296
C          -4.31519168313515   19.92483404035609   12.97538155287500
C          -5.42147575471982   20.79432308817206   13.20664489381912
C          -6.55084896267783   20.75100851544262   12.35885928241721
C          -5.36412671734919   21.69153830466470   14.29288003687089
C          -4.26849704093215   21.72955362459470   15.11178702130677
C          -3.18014020789024   20.87378824406939   14.88291957298193
C          -3.20266824624067   19.99073939000052   13.83762480939093
H          -2.92592537826285   -0.46293391331111    0.51705218757285
H           0.08957788662067   -2.56061753068672   -2.85670287691288
H          -0.52721493807741   -4.75361390103665   -2.04264782762131
H          -1.80935449922097   -6.18156246904728   -0.49979823187420
H          -3.30577676857192   -5.17265601173480    1.17581403958959
H          -3.53432545237463   -2.72418060654028    1.32232637619721
H           0.72116949887244    3.00238834137910   -3.25413685834534
H          -2.41473358483260    8.94017665977614    4.05163871084077
H          -4.09535865039745   10.94225746276707   -0.31380944141804
H          -5.56500931306215   14.21623229907106    3.46465338124320
H          -4.64932859310719   12.85885189323811    6.05500057910956
H          -8.62940718942814   18.23681536161654    8.00869346104527
H          -3.53335551889811   18.35479011826689   11.70225355067225
H          -7.37155029621665   21.42139237272789   12.55955203121727
H          -6.20396404166214   22.34827139967861   14.46518497121392
H          -4.23413396614031   22.41968523483721   15.94121104176284
H          -2.32407084504656   20.91786173900846   15.53919311155965
H          -2.36798179958550   19.32961899023097   13.65665288023388
