128
 SCF done       -210.167909143691          0.000227620590
C          -0.29968115101275    7.37822149543276    6.26220726253241
C          -1.28680864441819    6.43450412075410    6.10864418160958
C          -2.64820617620063    6.65677911640461    6.37137566321247
N          -3.78237481533990    6.77591153891295    6.51774060012208
C          -1.02488692980192    5.10264667135954    5.72995724108625
N          -0.83838704074876    3.99443642015090    5.49038685865507
C          -0.43911453297120    8.64042984023933    6.97797452704234
C           0.86098115799735    9.08292453442358    7.36201405603033
C           1.04110214777854   10.21765033693950    8.09699475634978
C          -0.08755525127281   10.98086219124763    8.47601787804432
C          -1.38706004467059   10.55286671376634    8.07953964617637
C          -1.54519979325769    9.36576364492879    7.32674732228212
C          -2.50144360036322   11.32800206952140    8.45847256415267
C          -2.34337942588369   12.46823739225549    9.19839157878978
C          -1.06393105858615   12.88695152298986    9.59128345047766
C           0.03967304486628   12.15894832139909    9.23725373815677
C           1.87181217193691    8.14327265586986    6.83410308099756
O           3.07235507634022    8.17240833199748    6.99776404645626
C           1.10712794715897    7.17904185324470    6.00710719360128
C           1.74097921781174    6.35710876072360    5.12053095363202
C           1.17604676661453    5.71088610380031    4.00016722631451
S          -0.20990383872534    6.35720760511974    3.15961660950396
C          -0.23002062853471    5.02108944615578    2.05213406966829
C           0.78656404389930    4.12466089188273    2.33396009676642
C           1.59693609344523    4.52759942174956    3.40973463486926
C           2.72348213703260    3.71108534872094    3.95195757612244
C           3.07646898554694    2.56938348121132    3.00406092254654
C           1.79965794525949    1.86305115630209    2.56978701275310
C           0.96169152399283    2.77944732942104    1.66811558056815
O          -0.26676917364027    2.17838332634755    1.33101813838952
C          -1.27734102905109    4.99031799095524    1.05816390178722
C          -2.50456095696295    5.52395407133302    1.37387502592349
C          -3.57301719579182    5.45686592347570    0.45577515863352
C          -4.89278638678910    5.87095073404471    0.52782539415174
C          -5.64045075254817    6.71529521058742    1.50919883452575
C          -5.02400684130899    6.86556994531037    2.90254237855354
N          -4.75197213238446    5.57283009279407    3.51345608436473
C          -5.84623302224909    8.12426586252620    0.90541876448501
N          -6.76888591452678    8.89134287422001    1.72344708169308
C          -5.53393474314608    5.40914945497266   -0.68889533497541
C          -6.81864055820004    5.45415618591397   -1.07999395273745
C          -7.26385434788189    4.87178549914286   -2.38197103473266
C          -6.16579739476550    4.28469076761860   -3.20718729429862
C          -4.89033997537514    4.21881664200543   -2.78479177426585
C          -4.52316223460475    4.75049737110551   -1.52475339673348
C          -3.34000436707184    4.78084539939418   -0.82066216417299
C          -2.04706312548118    4.30062339867763   -1.13773763984718
C          -1.04497127500389    4.41289544788856   -0.23348424437782
C          -8.08354657678852    5.91524718586489   -3.09395087680104
C          -7.75120704451930    6.50439680724551   -4.24525046351608
C          -8.56676782753496    7.49721093969044   -4.88259388910112
S          -9.93470030361536    8.18249976710695   -4.07837488856228
C         -10.31378552837935    9.16016912961406   -5.47292466390832
C          -9.41199923104911    8.90428669390140   -6.51512578354063
C          -8.41424417661688    7.99082908911270   -6.17345244782604
C          -7.31097928290438    7.60574921287226   -7.10980879079521
C          -7.19597795744903    8.62845450483036   -8.23730419886864
C          -8.56372731206215    8.85501162895480   -8.86677385451861
C          -9.51658930700677    9.54155985003217   -7.88110941212704
O         -10.84161772538701    9.54152100396087   -8.37273002949046
C         -11.32232010573259   10.13347965163091   -5.54107582767939
C         -12.28502509677546   10.47670040353680   -4.62826578201148
C         -13.24997064940116   11.54442690659989   -4.81050903817073
C         -13.18340807748945   12.56007693777716   -5.72902097201630
C         -14.16184911850340   13.56687060411995   -5.85747612271654
N         -14.92984730058017   14.40584932773391   -6.01573600063258
C         -12.11007042647122   12.78647971430884   -6.61694205590021
N         -11.25676349179953   13.07332806638331   -7.33039221139771
C         -14.26241458460120   11.40588799303705   -3.76875547974059
C         -13.86769582382759   10.35049422001222   -2.89729369778800
C         -12.60772583600881    9.76467168292626   -3.38525711723756
O         -11.98275935806230    8.85876769018457   -2.86023594858117
C         -14.60645472843999   10.00133578608503   -1.80458503583848
C         -15.80357520625784   10.70078281891027   -1.53108721461808
C         -16.21216343915572   11.74946101603171   -2.40406586289315
C         -15.42192280523928   12.09203169345389   -3.52620124083686
C         -17.41080089525887   12.43621191154687   -2.12454830509532
C         -18.16936720960444   12.10657062783775   -1.03425062611053
C         -17.76485998992636   11.07518896215577   -0.17414734765802
C         -16.60702644572070   10.38724311626672   -0.41753203013503
H           2.03221090309871   10.53154632906642    8.38934630907934
H          -2.53883777183566    9.06271314760736    7.03371875541626
H          -3.48516166848824   11.00019506046671    8.15547591640750
H          -3.20414905140772   13.05364927694852    9.48563057135374
H          -0.95653351550591   13.78890436012515   10.17531256189153
H           1.02787462247626   12.47690128007822    9.53648798145127
H           2.81159820834547    6.24553714177719    5.26206345909995
H           2.41519310718432    3.30171972984366    4.91923939484338
H           3.59323709855936    4.34825243044326    4.13242052393741
H           3.74590689322244    1.86910384366368    3.50520893754722
H           3.59352031189382    2.96085811734153    2.12497420166197
H           1.20937021685289    1.59894803079359    3.45117509358646
H           2.02349388695571    0.94644050060689    2.02252936400859
H           1.48673457762491    2.90472257136244    0.71096443242046
H          -0.80294590564423    2.10939287065641    2.13013098070300
H          -2.67588064410426    5.91813458448597    2.36053489432701
H          -6.63616954684563    6.26823497764148    1.63676561616544
H          -5.71636643028069    7.48863709910538    3.48940245912927
H          -4.08099358400541    7.41459696638779    2.83151716418336
H          -5.60392893348309    5.02156479254693    3.54720322087274
H          -4.44771292238417    5.70976962966841    4.47276477561092
H          -6.17671989329761    8.02053447657370   -0.14200325939994
H          -4.88560640096077    8.64614033552437    0.90197846880946
H          -7.70392236803971    8.50147028430056    1.66248799951441
H          -6.81217191773951    9.85258015784084    1.40576055101807
H          -7.59229289979179    5.90421237108653   -0.47269097648572
H          -7.96476200902157    4.05491436839796   -2.13277339717867
H          -6.46234212444942    3.87297045036425   -4.16033200685086
H          -4.13032735343443    3.75674419274450   -3.39826042510016
H          -1.87203042983001    3.84900885091705   -2.10294987164259
H          -0.05278793611425    4.07190710882444   -0.47544219712464
H          -9.00084362697106    6.20209407371001   -2.59599958481501
H          -6.84020644845838    6.22384725999688   -4.75536242757224
H          -7.52060078200045    6.61626286058078   -7.52973013820440
H          -6.36690357320977    7.53780708910133   -6.56551898734475
H          -6.49145856605605    8.27120762026817   -8.98958402686109
H          -6.81872013815437    9.57269488260996   -7.84001535042630
H          -8.99192550019685    7.89023608525298   -9.15730978737890
H          -8.48435185097194    9.46953108696504   -9.76393783636107
H          -9.25725130761130   10.60560187056666   -7.79807788955633
H         -11.11085212583119    8.63075706105346   -8.54056502389608
H         -11.33343036068072   10.67370262599067   -6.47942161120215
H         -14.28257035476341    9.20112775098199   -1.15556310609439
H         -15.75939921111627   12.88906860141769   -4.16955024013145
H         -17.71726210194103   13.23096020256389   -2.78879846509387
H         -19.08548822884127   12.63967093278306   -0.82837123152581
H         -18.37491270135187   10.82818676010935    0.68193519217263
H         -16.29046067754734    9.59155843925410    0.24117197588626
