126
 SCF done       -211.632852791878          0.000884680809
C           3.18166789165357   -0.82669203772889    8.63571091790422
C           3.71915080396977    0.22722114688327    9.33665965942987
C           4.74458075623588    0.09098998484023   10.29166304465619
N           5.58983729925766    0.03833570335207   11.06716433832698
C           3.20634291500079    1.53434656686216    9.27907759934933
N           2.76913893577755    2.59705174055319    9.31906398701810
C           3.43054415611728   -2.23418930629432    8.94081164183079
C           2.33184644413803   -2.99847943485646    8.45016691173008
C           2.26003675801122   -4.34848021968078    8.63311458218402
C           3.30998421166406   -5.00835150491484    9.31235290004996
C           4.41965700554310   -4.25208376735364    9.78714587587105
C           4.46157772512698   -2.85112844946788    9.59293533738969
C           5.46254727264628   -4.92317876491007   10.45588563280361
C           5.41277161274820   -6.27684097889716   10.65106126603133
C           4.31930219399600   -7.02076545810766   10.18450190423320
C           3.29024191402788   -6.39976934710101    9.52978325099924
C           1.39503005385954   -2.09755683188458    7.75496345086430
O           0.30934342719453   -2.36312883685612    7.28334114990113
C           2.07517084635918   -0.77526560198497    7.71487413450874
C           1.60673836580319    0.15173385898327    6.82176541222945
C           2.23039192217783    1.27760226183613    6.23911404162147
C           1.51664783489983    2.22569135509994    5.52065423816365
C           2.26241294570763    3.41551915855079    4.95611181301039
C           3.55617911406870    2.94897924975297    4.39984444837993
C           4.27578098098537    1.93161572218883    5.06880780112337
C           3.74004247975055    1.37674703388878    6.33470612679138
N           5.37983660592089    1.59071994254301    4.44961446372728
S           5.51782830132310    2.49945281515693    3.10068249998128
N           4.13752649152695    3.34503858056058    3.29330815348014
C           0.12430788105953    2.11708040216761    5.25630236857440
C          -0.67790975610731    3.07420926871116    4.71997720343481
C          -2.02954913740891    2.89314063430709    4.27604057414221
C          -2.67729416012424    1.67236838385136    4.28410265457187
C          -3.96168010163397    1.54328298632717    3.72975346676423
C          -4.78020979380415    0.42711284159440    3.58293560982090
C          -4.45237411711458   -0.94965171926254    4.04366321601511
C          -5.63390625278680   -1.69466810988053    4.68570652402664
N          -5.11650550495064   -2.74381637473969    5.55331991665669
C          -3.85773974542301   -1.80647718036283    2.90233781104094
N          -4.78060350093122   -1.90991595547247    1.78472193299899
C          -5.95399743727234    0.86978970474935    2.86520142733650
C          -7.02348981922330    0.19441404752589    2.40143172604741
C          -8.10896234985135    0.87454569930259    1.63570827495212
C          -7.86037989418920    2.32230415202931    1.36049156720817
C          -6.79607592623632    2.98751777376916    1.84188750012730
C          -5.81271013983910    2.30887497997404    2.60499851032424
C          -4.60709733413764    2.70895331658035    3.13894631078889
C          -3.93969974341312    3.95739117538395    3.17411257925720
C          -2.70489107890024    4.03878729239732    3.72498666841490
C          -9.39436638517284    0.65389595130815    2.40926839018821
C          -9.97418033245120    1.64311994520289    3.08825191752320
C         -11.19301902667049    1.59067794526948    3.86767594729773
C         -11.41913168611513    2.50537120212145    4.85015051736274
C         -12.74901835825482    2.64952942121938    5.54951043654405
C         -13.84211054928739    2.02224995382780    4.76683702116086
C         -13.59161237724437    1.02765523508616    3.79121658161640
C         -12.21873007967112    0.55839732068704    3.47593797042555
N         -14.68757549466184    0.60477419829987    3.20364059762285
S         -15.96164364612318    1.39701096556530    3.83252279139390
N         -15.11781741900550    2.31324209420136    4.87929814272761
C         -10.38206118614839    3.40282545949111    5.28676448517210
C          -9.07693680338995    3.04135211216998    5.36303367573633
C          -8.01354414101552    3.94035908864296    5.61784974445759
C          -6.72349751675917    3.54386102344887    5.81543351606325
C          -5.56555242999011    4.40311884156383    5.96642439862317
C          -5.45780148931873    5.69373738578703    5.52055802337526
C          -4.28008945697626    6.46157557201302    5.61902059921968
N          -3.34790307631700    7.13002717938464    5.66586121940425
C          -6.47692255941612    6.37811956707306    4.82782290505135
N          -7.25727385352729    6.97348464630722    4.23149024871744
C          -4.49923026110594    3.60990100544800    6.55683773519300
C          -4.92712774742665    2.25331742174185    6.61643381094482
C          -6.29460672937332    2.14684252210681    6.08389317143594
O          -6.93926352756381    1.12662778016954    5.94011818321298
C          -4.13139400732485    1.27320645436463    7.13595032199959
C          -2.85810532768880    1.61312500208987    7.64353326406661
C          -2.42660253370098    2.97025705727589    7.58885723376235
C          -3.26389142681486    3.96107009584154    7.02981054051260
C          -1.16231842964448    3.30273753653344    8.11312830761833
C          -0.36871916243790    2.34917327444360    8.68952676066352
C          -0.79898562291247    1.01574145276628    8.75060787496366
C          -2.00992521627109    0.65143833845416    8.22669127503654
H           1.41384764982456   -4.90921703597486    8.26447541628784
H           5.31673136438979   -2.30255784546011    9.95614894096757
H           6.30087476288347   -4.34518293389909   10.81636992788551
H           6.21601857891758   -6.78134111503811   11.16692752668619
H           4.29603648880919   -8.08817792981859   10.34611871072027
H           2.44535616428099   -6.96777135112691    9.16808711908662
H           0.62530647392155   -0.11615455826792    6.44517834801207
H           2.46104745878923    4.12553806183862    5.76813399146268
H           1.69599720238937    3.92710805411937    4.18190249924044
H           4.03064169964633    2.05669562770205    7.14282549758308
H           4.18155339256382    0.39997114772746    6.53541521662022
H          -0.32976198113003    1.16159042591121    5.47165323922167
H          -0.29514740613060    4.07692282793266    4.58564272757221
H          -2.19403587363044    0.79667006217141    4.68983949816075
H          -3.66745517504709   -0.86977954006215    4.80408287315930
H          -6.21210962999314   -2.18833852056717    3.90361693490596
H          -6.27886347680697   -0.97034241018363    5.20491518630234
H          -4.64061824059469   -2.34270520013916    6.35508871504281
H          -5.87545158572890   -3.31790534294393    5.90224252303512
H          -3.69664023996581   -2.80781976554942    3.30650493275548
H          -2.88249624117236   -1.37911448944235    2.61733558402998
H          -4.80623846508751   -1.03576269406723    1.26985855295959
H          -4.47872475289463   -2.63859466212512    1.14850411733256
H          -7.13444200674821   -0.86636579276535    2.55952421740047
H          -8.22032656057929    0.34466781099873    0.67632485139433
H          -8.60201546406829    2.82092115064205    0.75434475304879
H          -6.65893251173995    4.03847847233563    1.63043662176750
H          -4.41711722092879    4.82900729915553    2.74877892959532
H          -2.18816303637875    4.98727900660398    3.75140669503673
H          -9.76172776032658   -0.36166539186544    2.43472823192021
H          -9.49664061823128    2.61412402690868    3.05169624780182
H         -12.97487890077484    3.70386202120160    5.72652577002191
H         -12.69104627718133    2.17054563635501    6.53511121692260
H         -12.14560200188040    0.31870711939393    2.41366607611164
H         -12.01972525393258   -0.36636667550623    4.03236244959739
H         -10.68077017554371    4.39898519075606    5.59131500460800
H          -8.80817711364543    2.00606320848723    5.21495583644896
H          -8.25060570768398    4.99738168570361    5.63458768057459
H          -4.47659644632302    0.25090845584030    7.17424608469515
H          -2.91548504485202    4.98171609436834    7.01159776341290
H          -0.83516234840171    4.33052939136910    8.06207044727936
H           0.59410379354648    2.61772470257537    9.09626457692146
H          -0.16714341365395    0.27504775501746    9.21722857942356
H          -2.33260558070996   -0.37905292756707    8.26140984633528
