140
 SCF done       -218.945771312744          0.000455322954
C          -5.04315306862618    5.36408400390563   -6.61520026406353
C          -5.80571396479928    4.74087773158508   -5.65746580598545
C          -5.70113398394364    3.37498653428149   -5.33747528251818
N          -5.63704662196862    2.27061181468133   -5.02835076384529
C          -6.84495118659090    5.39542787871201   -4.96826706947397
N          -7.73516911631721    5.89289089524222   -4.43874082908018
C          -4.18604620493532    4.69518406189115   -7.58728625334289
C          -3.99155405455328    5.57472132844971   -8.69265708337212
C          -3.26027847716173    5.20224100640069   -9.78230836717295
C          -2.67118419659751    3.91702357421639   -9.81152773039068
C          -2.85033309167537    3.04015992353816   -8.70344648181315
C          -3.62114612245877    3.44956577820293   -7.59029978189151
C          -2.25279238509948    1.76442508166120   -8.74398331861324
C          -1.51600457734524    1.36954860010148   -9.82734750719806
C          -1.34115094829830    2.23296614308473  -10.91857530605944
C          -1.90669025648836    3.47924605702358  -10.91054580597416
C          -4.67416602529329    6.85650089349097   -8.42188258719152
O          -4.76834894405522    7.81944746849237   -9.15188673904687
C          -5.17453840539729    6.74011986664454   -7.03051912987383
C          -5.58347807067862    7.84448433925467   -6.34054210786302
C          -5.65086432281470    8.01450577405914   -4.94230475400994
S          -4.63046843832699    7.12010845866299   -3.84681953263974
C          -5.26141370477806    7.98097680654623   -2.47048024069613
C          -6.24711747856003    8.88096350494534   -2.85575142834220
C          -6.44089969277907    8.92012454866394   -4.24319238918497
C          -7.47759516021471    9.76332729442253   -4.90758959205398
C          -8.10005735522016   10.75984197816820   -3.93305424224350
C          -8.40256254506855   10.10662777335020   -2.58322355887070
C          -9.33646426131095    8.90570479869437   -2.71576278157189
C          -7.08205727906247    9.69763414572918   -1.92159512947782
C          -4.70218550112602    7.65213105170070   -1.20413231885237
C          -4.77429661411792    8.38171690362559   -0.06809842897469
C          -4.16241320721480    8.04169598091925    1.18967364504422
C          -4.11896498213694    8.99739362003349    2.18231441902975
C          -3.47244355518628    8.73924259244746    3.40805652362513
C          -3.24789463925596    9.52733725229238    4.52690494101272
C          -3.71528048973296   10.90741042218622    4.84987153545086
C          -3.55573192832908   11.90851858619740    3.69448143653270
N          -3.27199167645719   13.22716238949281    4.23671462161983
C          -5.17535294889840   10.85699756459813    5.34721901182459
N          -5.25991301130173   10.04608700350623    6.55117958533028
C          -2.52033668563853    8.71026237392570    5.47116933988975
C          -2.06032391754623    8.99096394357844    6.70330826772923
C          -1.35218899545753    7.97259496616425    7.52063805018485
C          -1.18815260868921    6.63846539744565    6.85117196068412
C          -1.64284060301998    6.38205873461083    5.61224191435672
C          -2.31695221953633    7.38581162721084    4.87448548986732
C          -2.88445068752306    7.41765373685965    3.61925180521654
C          -2.97839290064151    6.44169198012527    2.59890549328016
C          -3.58841130780058    6.74688275483575    1.42882172745505
C          -2.00392817629731    7.75076674898091    8.86397251999147
C          -3.22306046232989    8.18837066995093    9.18802919946050
C          -3.88825729930058    7.99261630766747   10.44733869720576
S          -5.13983528594092    9.11296579131483   10.86335839572697
C          -5.43495790662089    8.30965246285438   12.38794141179325
C          -4.58258603118626    7.21623743390684   12.53653323345421
C          -3.72236350397670    7.03791318253297   11.43847913692421
C          -2.77065316192265    5.88639581409730   11.35055023050882
C          -3.14197886431933    4.79438781417810   12.34983864711656
C          -3.35816571281282    5.37671775351142   13.74639205862780
C          -2.12323249784935    6.10935334062103   14.26825194196499
C          -4.57253629475662    6.31025695090832   13.72479939760336
C          -6.44175178391430    8.85948455319453   13.21059784251241
C          -6.93198588707286    8.37171979523879   14.38664921195981
C          -7.92791462753262    9.06319478812725   15.10152686070475
C          -8.44521714751658    8.65587147856012   16.30480208905032
C          -9.46783850497218    9.32669041159763   17.07932180220062
C         -10.13642812381312   10.47998243212547   16.74977632510272
C         -11.12373045461062   11.08087981853950   17.55688485401291
N         -11.93454112714300   11.62516388091643   18.16165505499168
C          -9.95093388851877   11.23425035808438   15.57388357606672
N          -9.86515346679059   11.90770808198171   14.64651929345047
C          -9.68292112756628    8.55269198061820   18.29905241677657
C          -8.81733250363848    7.42286327886144   18.27776326783735
C          -8.01756374399937    7.44338325801778   17.03969331509090
O          -7.17841550799666    6.62505510196092   16.71334913139281
C          -8.79411349278114    6.51079902903319   19.29223415400158
C          -9.65328995017037    6.68936438994180   20.39983247730902
C         -10.52235281219992    7.81710214426841   20.43000886087937
C         -10.52373836905575    8.74506098328017   19.36270172346381
C         -11.37497255078863    7.98718326450100   21.53956491184580
C         -11.37069730516058    7.08773250343199   22.57073323185885
C         -10.51429990941063    5.97733927252067   22.53982786020412
C          -9.67403862529794    5.78246400021253   21.47726307536408
H          -3.13119089716031    5.87810494676638  -10.61472014276755
H          -3.73789689606692    2.77057667093214   -6.75975124447565
H          -2.39306106218423    1.10201086474230   -7.90227256903407
H          -1.06447165868432    0.38884233753239   -9.84953848957306
H          -0.75656371371571    1.90600081713978  -11.76565790823220
H          -1.77539558688053    4.14851883854308  -11.74842754245227
H          -5.80260476777500    8.72046422264152   -6.94396830485471
H          -8.25091524204156    9.10259878646145   -5.30913110986247
H          -7.03827009416215   10.29306149881764   -5.75760023036577
H          -9.01559688506818   11.16530738293973   -4.36685926804612
H          -7.41036670438145   11.59253818637054   -3.77308959758780
H          -8.88791575479194   10.85304293035948   -1.94346286922198
H          -8.84454503171353    8.07491714765287   -3.21414365884779
H         -10.22498783478793    9.17623280075662   -3.28175410863778
H          -9.65120860301773    8.56725377335106   -1.73081177571006
H          -7.28589593464039    9.12108269890941   -1.01666988880693
H          -6.52896084698746   10.59802647176971   -1.63231453684886
H          -4.11941781002076    6.74078791534206   -1.20915272101690
H          -5.27601610753344    9.33797428556390   -0.08563827974770
H          -4.56622861440568    9.96445663458803    2.00717944866092
H          -3.10717996192349   11.28794777714688    5.67486236778040
H          -4.45536634125711   11.89171453137731    3.05657953226750
H          -2.69862416476926   11.61726881064478    3.08123930776079
H          -4.05616461384344   13.55999160539853    4.78776848262938
H          -3.11450765046546   13.89376071169320    3.48919050860614
H          -5.81544148108738   10.48619659638314    4.52853686061435
H          -5.50289810863238   11.86732707005818    5.60746527825104
H          -5.07704144629974    9.07414816656531    6.32039656206991
H          -6.19106912455167   10.10052463538870    6.94940700821481
H          -2.18857720267614    9.96565344150451    7.15199729616884
H          -0.34270919779715    8.36803835683370    7.72743942869712
H          -0.68280924618303    5.87938389991373    7.42922547192829
H          -1.50223042661238    5.40792162575770    5.16607348182414
H          -2.55752677118166    5.46067239399026    2.76512045251311
H          -3.66477834509708    5.99769536917262    0.65697169468939
H          -1.40649842030957    7.18446537026186    9.56048723338701
H          -3.77564679598735    8.79560172402329    8.48131559059081
H          -1.75431523335171    6.23207347213918   11.55872161036159
H          -2.78163652935925    5.48480519498841   10.33386026787406
H          -2.35208931655379    4.04153036975984   12.37416983366914
H          -4.06255575825956    4.30379473501048   12.02588847605912
H          -3.57728801866613    4.55197728543758   14.43270474216684
H          -1.96421200688831    7.04091378906536   13.73081185143161
H          -1.23629358643846    5.48790855724012   14.16478685845947
H          -2.24981783086979    6.34757048911702   15.32191593285768
H          -4.58131570691358    6.90383320298833   14.64125695145125
H          -5.49021623581785    5.71358754863917   13.71463221327981
H          -6.87175161331133    9.78358072879669   12.83802053383644
H          -6.58231445926707    7.44486449302867   14.80410955032779
H          -8.29379626504064    9.98248338627081   14.66246400068213
H          -8.12729303476447    5.66215456437411   19.25086517197870
H         -11.19387889323944    9.58793817371069   19.41788904021911
H         -12.03279924455679    8.84379818959345   21.55858435908985
H         -12.02762047214718    7.22711193611951   23.41635983409234
H         -10.52366680944708    5.27716649342030   23.36191408530675
H          -9.01213511297718    4.92906006755203   21.44780956350324
