140
 SCF done       -251.587700596978          0.000687737252
C           4.98400544755509    2.11927035132595   -4.15721131720303
C           5.48836609176006    0.83569641665354   -4.11128400677266
C           6.83800641446245    0.52377502219363   -4.34201971141346
N           7.93703241132771    0.22241344044245   -4.49527961299255
C           4.67349183098070   -0.30309247795761   -3.97431003306131
N           4.04381914528203   -1.26371987109961   -3.94040962122582
C           5.70790823287455    3.26958368218807   -4.70440343713800
C           4.74481953393301    4.23073235186182   -5.12863623889958
C           5.11198904545241    5.37885935482311   -5.76701977655868
C           6.48808459845775    5.66331775532162   -5.93782822937340
C           7.45580266305147    4.74768539887476   -5.43692166928976
C           7.04193039798152    3.52684858914078   -4.84599227051232
C           8.81970048864328    5.08094887737362   -5.53928630144820
C           9.21317992953426    6.25683981482876   -6.11978906393315
C           8.26127991873186    7.14330364786014   -6.64101533823033
C           6.92703175292359    6.85088049178407   -6.55338807084710
C           3.40340212140380    3.77816326696940   -4.70079388079218
O           2.34529116621714    4.35377172007013   -4.86764186377030
C           3.62490729804819    2.51653879210006   -3.96887959922731
C           2.57000678116572    2.00484429317880   -3.22634775556568
C           2.53362666173996    1.13217621627176   -2.15403033654749
C           3.59957341124330    0.47397704941443   -1.46418658602885
C           3.03998688036676   -0.38111495172847   -0.56280133395986
C           1.59632800857503   -0.27528403748230   -0.63985247641760
O           0.77276644865759   -1.01330163458369    0.16650878399794
C           1.44723534732675   -1.88073881653861    0.96929334808537
C           2.77939757474209   -1.97506997312189    1.04404561930509
O           3.65209920042618   -1.21257259804335    0.31878782459590
C           1.27727040454990    0.67355107222012   -1.56294930578870
C          -0.03427882852598    1.16383362727444   -1.93503904848422
C          -1.11540735600439    0.43303737108019   -2.33790114848112
C          -2.17373802902960    1.34995756343886   -2.74126307897768
O          -3.36809269928524    0.90293675096511   -3.18261863251428
C          -3.47683517897104   -0.45618396364144   -3.20888819944162
C          -2.49432986932419   -1.29847554902323   -2.85400513875342
O          -1.27319327709475   -0.91421002394378   -2.41659349030837
C          -1.72372316271694    2.63065239673092   -2.59440109130405
C          -0.40748685233761    2.56052823908181   -2.05627355267049
C           0.37527565047106    3.66176967821895   -1.62187748929904
C           1.32079101916558    3.50256919225393   -0.60535511734483
C           2.07247565137440    4.59200993877236   -0.17130313493321
C           3.03755519962372    4.69722716041220    0.84147236852907
C           3.47961133419276    3.61998673860386    1.74988454514368
C           4.99209549665236    3.27889623120535    1.57994074288865
N           5.30594723252460    2.49669207042404    0.42133556097847
C           3.17210626864959    3.97742357980427    3.23574419033382
N           3.14941323325163    2.85337353716220    4.13663474974357
C           3.52130579068387    6.05742520528045    0.81420246249485
C           4.45465694037989    6.69688910742303    1.54894583705919
C           4.89051755188687    8.08213687866165    1.21633189259102
C           4.02337812925116    8.77656126602371    0.20844361901529
C           3.05566030892345    8.14529853798661   -0.47722235863636
C           2.79143817333167    6.77138788619391   -0.24197679586521
C           1.90740717362553    5.88361026021509   -0.81933365927157
C           0.94714374115577    6.02367880346030   -1.84874477046023
C           0.19486247666370    4.95588489172511   -2.21285896897809
C           6.26719655875797    7.96154939144675    0.59725937601749
C           7.26771283990142    8.82472517418631    0.74674510822207
C           8.51665974143259    8.65436989349054    0.02852048726978
C           9.27501162589640    9.76845847307299   -0.54724024437788
C          10.29810890003982    9.27088059212256   -1.25162800246282
C          10.23606949648480    7.74806570152319   -1.24762688359458
O          11.45631045307074    7.17071393349537   -0.94530964392646
C          12.49840570067634    7.83411623523618   -1.54522719478735
C          12.41852081417980    9.06908811698441   -2.03437538391658
O          11.30720524146058    9.87270866597478   -1.90628598169527
C           9.11179494944381    7.47573026361594   -0.26941018894661
C           8.80531036126078    6.12173884456745    0.14497272202885
C           9.04725242548421    5.55404845846135    1.35030778845316
C           8.65785647288659    4.14390058623525    1.29989399350740
O           8.79363584075594    3.33592364158049    2.38072539301092
C           9.31485922704979    3.96310788716296    3.47745122676851
C           9.66864170088567    5.24934134306291    3.52113977280451
O           9.55824832713009    6.12160739096771    2.47216967942263
C           8.18109764858850    3.85914071076294    0.07104930701219
C           8.21837258589046    5.08278973506509   -0.70565838784219
C           7.62833309409472    5.26927727402109   -1.90697728461473
C           7.54798469302400    6.52488076565486   -2.61448529572513
C           6.31095001392964    7.06111992561942   -3.15654865086829
C           5.05832938855613    6.52707112296293   -2.98794266332980
C           3.88458932739971    7.15786034760755   -3.44901098554644
N           2.91613855347544    7.66958923542930   -3.79126171525790
C           4.79452640773839    5.31753230226678   -2.32561778337418
N           4.50627471708163    4.33151973061741   -1.80807468206964
C           6.63542300263064    8.31763675254428   -3.81838268367978
C           8.04164067655002    8.52574262207541   -3.66245140163500
C           8.56044010601982    7.41378853558369   -2.89334807742384
O           9.87604539266255    7.30020542245457   -2.57642495989366
C           8.66741361853555    9.61101227070841   -4.20278356822354
C           7.90319905471809   10.55357728381442   -4.93276424049927
C           6.50242178530814   10.35573223098555   -5.08343721055793
C           5.87842649254684    9.21974247447622   -4.50696612082551
C           5.75849887129483   11.29586205394055   -5.81869979681432
C           6.36630643888823   12.38732006036530   -6.38378524623393
C           7.74402383239325   12.58336120058686   -6.23299621996140
C           8.49635495366828   11.68489124935578   -5.52116071895391
H           4.36517331336053    6.07644624481996   -6.11788861344057
H           7.79699469231428    2.83465887249550   -4.50565060627821
H           9.55107657237379    4.39033252134429   -5.14605582393022
H          10.26190331693032    6.50514399397001   -6.18419515772555
H           8.58532345101669    8.06253966477825   -7.10667156621976
H           6.18770420971379    7.53399877220563   -6.94674370806255
H           1.61860921962793    2.45007448487356   -3.50187445567976
H           4.64761092894360    0.62042824256704   -1.62582362799101
H           0.78978794733209   -2.49625410787339    1.55863187353785
H           3.28053182265890   -2.67007445620395    1.69428339744447
H          -4.43993618957959   -0.78952297626219   -3.55255499358586
H          -2.60759380957945   -2.36825593347352   -2.89383546410073
H          -2.28447178779560    3.52390738123736   -2.78151151387276
H           1.41294736714155    2.54699719075907   -0.11525022840212
H           2.91164412488546    2.71090573533476    1.51060773007463
H           5.32617085003646    2.71961984727706    2.46087621790478
H           5.56803573995456    4.20508047225070    1.52381483647602
H           4.82734788934903    1.60324469310617    0.43420123836373
H           5.04886299681524    2.98955240603978   -0.42908666309613
H           2.19111120476939    4.45708935744034    3.28346388547287
H           3.91613349774714    4.68609292139838    3.60379666008589
H           4.04083278412355    2.37097095666339    4.15260564691035
H           2.43099324296934    2.18839021396689    3.87310390444332
H           4.99251511922021    6.21504536244874    2.35220398436008
H           4.96636135581358    8.69095403146223    2.12541489035836
H           4.25399521270757    9.81542392529091    0.02813692394983
H           2.46605964250723    8.66923048258994   -1.21465877330469
H           0.83524674573570    6.97476096529824   -2.34552936390352
H          -0.52358816907953    5.04931322941473   -3.01081597689016
H           6.38766804451126    7.11367409385405   -0.06170771961968
H           7.16089857551480    9.71467089600238    1.35222309283313
H           9.03686234765728   10.80346960163711   -0.39429306007095
H          13.39715496667181    7.24423068880359   -1.57950864720077
H          13.22921188395194    9.57075243786357   -2.53057883179453
H           9.41527086968168    3.30199319296845    4.32018528109917
H          10.07700915912368    5.71450243350300    4.40072173206229
H           7.77924529558750    2.92682001480658   -0.26859709941560
H           7.12221098883084    4.42968637512152   -2.36428252750859
H           9.73055987454172    9.76029750750149   -4.08959451222405
H           4.81572514044241    9.09210399662569   -4.64021338238810
H           4.69534181566127   11.14022194450460   -5.93147465951401
H           5.78556480444396   13.10158841924966   -6.94805223877858
H           8.21070051961698   13.44761251246508   -6.68184696940587
H           9.55996575514026   11.83315286850909   -5.40183677474097
