114
 SCF done       -209.108189838765          0.000757654509
C          -5.38112850060841    3.17711300180539   -1.72453673512559
C          -4.55129128005024    2.95803333711746   -0.65426751218078
C          -4.98769749612489    2.88582967244596    0.68161095729727
N          -5.27577100849924    2.86104861899484    1.79359937881230
C          -3.17513169305061    2.68316479162345   -0.78673135975110
N          -2.06760009305655    2.38591574916188   -0.85041479038254
C          -6.83828583228929    3.09479178335621   -1.69594363160783
C          -7.30155216117660    2.89263249210870   -3.02898150021306
C          -8.62594304961979    2.72542258576341   -3.30968823079215
C          -9.56515509383601    2.76429614596811   -2.25378542395278
C          -9.10984074116590    2.97945857453388   -0.92135488034857
C          -7.72937640216794    3.14127579584200   -0.65870931887417
C         -10.05790178132736    3.02002241438874    0.12089201222661
C         -11.39128345884742    2.85397466461452   -0.13757184899656
C         -11.83847847600466    2.64162689800236   -1.44988629092699
C         -10.94451948862418    2.59737536268179   -2.48510551244440
C          -6.15130482979862    2.91622889585785   -3.95503315958070
O          -6.15895769174023    2.74230765861483   -5.15301194614031
C          -4.98050159176494    3.26284645059204   -3.10848328310264
C          -3.83429036228242    3.71277999399970   -3.69554548503528
C          -2.77693855261569    4.45479465173196   -3.14155199998222
O          -2.81274742621848    5.01386877453666   -1.89569493483596
C          -1.67679626551887    5.68734372620089   -1.68143275478589
C          -0.84014407928129    5.57757014299226   -2.79412209008925
C          -1.56785145156042    4.80484268876355   -3.74734756134836
O          -1.17090872220544    4.46439699945716   -4.95849993247592
C           0.55242268366634    5.92709399832482   -3.08851324693171
O           0.98090022001753    5.79329621355778   -4.21946494189535
O           1.36738844053372    6.32618064813550   -2.11863173816515
C          -1.51590160965471    6.37959272992246   -0.42336559267605
C          -0.76470213229386    7.52890337911761   -0.33828880826811
C          -0.54719375524311    8.13303157552957    0.91709510859417
C           0.23749297261382    9.21064295752979    1.28978114687563
C           1.09043097947014   10.10224827853731    0.44905070671218
C           1.96937661159335    9.33638508640866   -0.55925264978132
N           2.37992546150440    8.04662112861082   -0.02165456122669
C           0.21624266328572   11.13749821166831   -0.28430162994094
N           1.05100820519017   12.04102618615380   -1.05515363892384
C           0.12107743106405    9.32734272685784    2.72428535891987
C           0.70281056339852   10.17138837331481    3.59644330947312
C           0.49043185695792   10.05506592680667    5.06288786528539
C          -0.51442544826811    9.01689560343222    5.46660441028349
C          -1.09702324928644    8.18785056444273    4.58147098296957
C          -0.79264967838990    8.27987474401703    3.20166534064067
C          -1.18490942647703    7.55385506506408    2.09662923889018
C          -2.02006861197031    6.42052759993987    1.95525684909467
C          -2.17269267915941    5.84819652122011    0.73609959443862
C           0.14631738726082   11.37819409061736    5.69231501442811
C          -0.63447662457745   12.29201859551145    5.10499605815810
C          -0.93067127848871   13.54267133407435    5.73553837931113
O          -0.29167633593254   13.89028166768332    6.86532358009855
C          -0.72450659697365   15.08829307471662    7.27125042238156
C          -1.69714686660654   15.55626740222061    6.36687829046745
C          -1.81744429779069   14.55827367936888    5.37326620615271
O          -2.60909136210271   14.54368414784879    4.29535986884654
C          -2.44903080177620   16.79969891083104    6.47367767771428
O          -2.43036422367418   17.55927906274781    7.40639368849781
O          -3.22540257548179   17.02536403236305    5.38466791528135
C          -0.18309238655174   15.76677430881956    8.38336329961675
C           0.68407603456325   15.29357324448495    9.32535582058397
C           1.25209282062906   16.11114921946399   10.38459884717095
C           1.36203155735892   17.47644936613375   10.37521021146215
C           1.93800658570817   18.22295551017224   11.42442450009641
N           2.38804117567469   18.88017227595149   12.25116754201762
C           1.00577064525878   18.31045849735482    9.29253082390248
N           0.80577875021394   19.04699087909584    8.43528646098134
C           1.80536978710302   15.21739694322671   11.39267425606454
C           1.71487210277069   13.88275202425903   10.90501015649999
C           1.07034992662518   13.87639873328237    9.57792096292956
O           0.88492042790208   12.90301851866707    8.88066383908951
C           2.18318434003136   12.82081696551837   11.62397481924258
C           2.77073331183181   13.04919038071303   12.88833381893373
C           2.85581188635395   14.38135116520893   13.38694782581594
C           2.36341167774098   15.46169109672891   12.61944034545595
C           3.44251008829743   14.59704722229469   14.65052127675772
C           3.92493711835632   13.54924803746050   15.38652200462305
C           3.84104738092938   12.23811076716361   14.89454017678847
C           3.27620306087044   11.99347233073273   13.67228159936380
H          -8.95533440660535    2.56365401439418   -4.32532644287089
H          -7.41056971249523    3.30769159732714    0.35878488016724
H          -9.70859908245808    3.18088536475764    1.13039754317791
H         -12.10921263013898    2.88462602545305    0.66849413621025
H         -12.89427473630678    2.51316984797628   -1.63658246814706
H         -11.28256442370681    2.43383432884218   -3.49804015332085
H          -3.74915633010947    3.55373054075115   -4.76480832000189
H          -0.26688744794269    4.84506974584549   -5.08688499535286
H           0.96381605895902    6.42930917542708   -1.23964221088100
H          -0.37688026872580    7.99764508896642   -1.22823235992430
H           1.75779369769425   10.65417174897529    1.12078030674197
H           2.81267272482929    9.98851899569256   -0.83036221180539
H           1.41055717819125    9.15066711898404   -1.47776854483643
H           2.92446777657745    8.17867341174997    0.82482012280702
H           2.96942350509560    7.57179198094995   -0.69702576664483
H          -0.41483337438979   11.65098422552042    0.46269861967996
H          -0.44805767595289   10.61858256774826   -0.97970896605719
H           1.62286935137345   12.60847314788606   -0.43814486108247
H           0.47990197662840   12.66691123413455   -1.61118813485077
H           1.37206692220430   10.95935101655093    3.27742247610029
H           1.46005263042115    9.74637776296709    5.48872734187770
H          -0.73903267468330    8.96540384578160    6.52038205585182
H          -1.80377762930960    7.44087416402041    4.91212771944671
H          -2.51696793810168    6.00991646730727    2.82105626316814
H          -2.77840050727184    4.96510392933462    0.61310485292481
H           0.53047177104299   11.57322494004537    6.68357865638447
H          -1.08367018617404   12.13389693355059    4.13548301062291
H          -3.11191633475732   15.37354670455207    4.26978914135542
H          -3.70034919750195   17.86319395337957    5.49866022047978
H          -0.53884167608338   16.78589089575605    8.47001825053752
H           2.10807642522899   11.81714421725442   11.23220863114983
H           2.43551678957391   16.45831650711658   13.02521782035849
H           3.50630575934580   15.60844237968619   15.02413893291850
H           4.37447956384847   13.72501640474403   16.35226804654163
H           4.22632825250792   11.42308813453717   15.48877210268754
H           3.20903916464112   10.98587870779461   13.28855334598055
