112
 SCF done       -200.948464101513          0.000808024405
C          -0.16152027999185    7.38544697815569   -5.31152524530584
C           0.40585713264483    6.37641926099680   -4.57296461012644
C           1.75038258681703    6.39571124234868   -4.15784782248741
N           2.85995083054891    6.35435690156288   -3.86038516856925
C          -0.25987458100988    5.15812008171051   -4.33808788311961
N          -0.79673662817526    4.15468488050827   -4.18427217182337
C           0.52953439481994    8.58445115110658   -5.76480072340316
C          -0.12741536802068    9.06524010499297   -6.93568251503317
C           0.32372997090589   10.16835684901143   -7.60049343903471
C           1.45068724033014   10.86142801499180   -7.09949578585756
C           2.08180807867652   10.40712869669218   -5.90530246913434
C           1.60567733254587    9.24985565337079   -5.24701826741810
C           3.18372175418799   11.12601071726518   -5.40063187216535
C           3.65133726633935   12.23546484378394   -6.05123104417926
C           3.03750921932381   12.67670558314512   -7.23269139612895
C           1.95978287525580   12.00562699183030   -7.74456803627295
C          -1.30485349648508    8.21884931614387   -7.21394160210512
O          -2.06212952675160    8.27022889954295   -8.15480826942297
C          -1.40984763462594    7.30979884689278   -6.03529932643100
C          -2.57833449541007    6.66915753256938   -5.74855053168465
C          -2.97495410243923    6.21238052124288   -4.46751008558387
O          -2.32095459895057    6.67141294911757   -3.37536853008661
C          -2.96053049857584    6.23065144122659   -2.27109512677181
C          -4.04955918193323    5.46414616056757   -2.64539472620157
C          -4.06454122765735    5.44160884399969   -4.04897775360395
C          -5.06075842095736    4.72593852867015   -4.87738822026221
O          -6.20029742351684    4.57435622022255   -4.53905262985717
O          -4.60898139160427    4.24422170214724   -6.04795078671354
C          -2.44439585385691    6.62332841987002   -0.98759239119543
C          -1.30082141109549    7.38847001491953   -0.93609686485251
C          -0.75888552684247    7.77335910779423    0.30273875992960
C           0.38765340899949    8.48707445741992    0.62449160306323
C           1.43058395607276    9.01769134827145   -0.30123805600615
C           2.07109064745939    7.84502886179247   -1.07035210729564
N           3.36426107045422    8.22005819214741   -1.59126300219651
C           0.85651626523355   10.08532907081233   -1.25023045739709
N           1.91419369485857   10.71641062628515   -2.02934978755209
C           0.45217982196659    8.53239458126723    2.06550274866117
C           1.36312929057244    9.07380916214433    2.89561322314221
C           1.25289451910842    8.93677634760514    4.37084534074131
C           0.02424650003093    8.21571193607889    4.84654037582775
C          -0.89074890589219    7.70698999960148    4.00184279408251
C          -0.71852193208008    7.82099617846309    2.60158842042130
C          -1.44668313503982    7.36401308393817    1.52281098378085
C          -2.63506229258293    6.59902620363679    1.43341280700413
C          -3.11351300735523    6.23323362402156    0.21822705178347
C           1.30572878288135   10.24131336987622    5.11431381539415
C           1.00053249769599   11.42274184904360    4.56739917011794
C           0.98477034364247   12.69325469897881    5.23255176763719
O           0.62231225239680   13.72642960195820    4.46191922312920
C           0.66398793720815   14.87167597079721    5.19829392616610
C           1.07804008101056   14.55633213822422    6.47900226252932
C           1.28808205535791   13.16368703196147    6.52171919261754
C           1.72674757195024   12.42719866921927    7.72525017353602
O           1.72853144157189   11.22832132298033    7.83498045604622
O           2.13563370603490   13.18775773554782    8.74747039885930
C           0.30287856543810   16.06032738867236    4.52101277178239
C           0.21625126835563   17.34654660187194    4.96616476199995
C          -0.19534956254864   18.47098908310296    4.13335900015166
C          -0.34009714994931   18.48155280900068    2.77071037302900
C          -0.72810378927781   19.61871157875084    2.02903380424385
N          -1.04026530568278   20.50047759227030    1.36385575242915
C          -0.09330952254533   17.40290967115758    1.89523321707001
N           0.09922743167726   16.58904773688263    1.10757532674914
C          -0.37279360650122   19.62836602333122    5.00153016346058
C           0.01463469455350   19.26513553671981    6.32209355463531
C           0.43034981844493   17.85634976794146    6.34506618719107
O           0.86201459978528   17.25906871906666    7.31156636441886
C          -0.02768320830798   20.15144945291858    7.36008653734979
C          -0.47734743630695   21.46870076861793    7.12194016793700
C          -0.87720681082220   21.83931039135657    5.80521496327144
C          -0.81720351137341   20.90015741365802    4.75002500351083
C          -1.32923834067960   23.15539461464699    5.57921808172016
C          -1.38288459177717   24.06256096356850    6.60239469668458
C          -0.98801313706997   23.69650895463933    7.89781082215581
C          -0.54470096661667   22.42693012710381    8.15224880883745
H          -0.17419185553548   10.51521144638871   -8.49367666041537
H           2.09036137298345    8.93403927964447   -4.33665266314141
H           3.65072818178612   10.78047851389556   -4.49038651242471
H           4.49832934270499   12.77862155433871   -5.65938198081328
H           3.42067640712786   13.55249107648845   -7.73435368905857
H           1.48103963699766   12.34407028718310   -8.65182647780423
H          -3.32096510676147    6.63130239013605   -6.53735683607975
H          -4.75090083351543    4.96399133142930   -2.01120774113825
H          -3.65380519086294    4.34524426406855   -6.15610070494299
H          -0.82219888602249    7.68047677863263   -1.85692913715025
H           2.22857772416667    9.48496012096790    0.28425292804553
H           1.36268380629788    7.51027915498752   -1.84645898026082
H           2.21642304201222    7.00476797385663   -0.38205743767131
H           3.25901246576080    9.05182188838543   -2.16640892501314
H           3.73750848224753    7.46971101796612   -2.16548845923846
H           0.27944353526635   10.80721018821046   -0.64744603501952
H           0.16441314046593    9.62329292435032   -1.95811082862821
H           2.54130924945896   11.22356255553960   -1.41170933492687
H           1.51499624438464   11.38740062232554   -2.67811619483284
H           2.23053789923668    9.60465188837848    2.52685930695196
H           2.12873456634504    8.35220570572416    4.69911190496909
H          -0.08856954996884    8.13618679711166    5.91599753305831
H          -1.76089358148475    7.19217115949352    4.38215456819679
H          -3.14490846792032    6.30579110992488    2.33889587347783
H          -4.01191926927237    5.64326496201828    0.13718573814940
H           1.54756336833436   10.17407466447743    6.16396138655006
H           0.72472523421460   11.49081292828827    3.52196899315734
H           1.17810495617586   15.28008182138069    7.26293434817503
H           2.09577638567773   14.13647894033684    8.56337808316479
H           0.04672404587706   15.87019972307812    3.48594805996968
H           0.27637183272094   19.84918195710172    8.35130066920077
H          -1.13083499619602   21.21355621048315    3.76717722306943
H          -1.63123978490200   23.43349248725715    4.58027468753176
H          -1.73004601597856   25.06820089672277    6.41888752462006
H          -1.03704906125789   24.42506358336251    8.69303268634763
H          -0.23958136799671   22.13896407980629    9.14757093567419
