118
 SCF done       -192.320508826847          0.000726190433
C          -0.06023777614168    4.57564884710956   -5.46986760337793
C           0.83760557152598    3.79966716673030   -6.16769266895538
C           0.81747858164592    3.62547395459987   -7.56649552136918
N           0.86066753437048    3.43215964846941   -8.69810889140878
C           1.88482614087858    3.05479718179489   -5.60778648550730
N           2.76403427872174    2.40849037240369   -5.24029064807261
C          -1.15101645727868    5.33342961305620   -6.05982907361488
C          -1.89657432107086    5.95599422572427   -5.01724954033177
C          -2.98610245887875    6.73586166308320   -5.27430977567265
C          -3.38453587754558    6.94576358908222   -6.61415478629068
C          -2.64198066555838    6.33218077928837   -7.66415282450983
C          -1.52329603142094    5.52180373017787   -7.36719433781497
C          -3.04543984201309    6.55150640668809   -8.99728947949948
C          -4.12855380147663    7.33816517368456   -9.28112828346832
C          -4.85893999942278    7.94064962863836   -8.24632381995215
C          -4.49429204777801    7.74821132833009   -6.94083756221969
C          -1.29915343515589    5.61505560029268   -3.71484020839098
O          -1.73654228877352    5.89203681110809   -2.62029166371542
C          -0.09243362495492    4.79379272663034   -4.03243386794370
C           0.76340399942981    4.31360397608336   -3.10148452194630
C           0.75706607726550    4.71931051806601   -1.70224896388589
C           0.83094480799160    6.08131216642604   -1.41106972578029
C           0.86048954454204    6.54283058645994   -0.10790598841758
C           0.94462750034169    8.02274242786106    0.15315065773576
N           1.93544286037047    8.63274490034726   -0.72303375315386
C           0.80114633508459    5.62246205427864    0.93007428924987
C           0.72597763294815    4.27114950589057    0.65430958183079
C           0.71766546772837    3.79713044075711   -0.65102646919632
C           0.61976944098067    2.30430028771360   -0.88459727332248
N           1.65218766638045    1.56796739205837   -0.18907422011415
C           2.92914305386754    1.40842081087944   -0.65096388201460
C           3.35496653828967    1.54138989029392   -1.92253254379945
C           4.68448100646376    1.27084101525859   -2.36406942656114
N           4.97659234977304    1.32261670829203   -3.70427729050475
C           6.28657840009178    1.00559229733133   -3.87355844531369
C           7.28309321574825    0.79986947070463   -4.82350753236367
C           8.43347101920219    0.44326556341222   -4.11468218575201
N           8.15270486099386    0.44386235418679   -2.75885753430587
C           6.83903883041003    0.75699938969795   -2.59270154798469
C           5.83269295013356    0.92085766719145   -1.64358589196998
C           9.70440055627948    0.10764114349365   -4.65658303093595
C          10.85447916497038   -0.03649599499086   -3.96659889934941
C          12.11105434579417   -0.45387179667642   -4.56551635560031
C          12.11203794496434   -1.38261622402033   -5.60706010068183
C          13.28816510911796   -1.81820782031254   -6.19175007520761
C          13.24710550139731   -2.81734532363787   -7.31835418819243
N          12.10784896899010   -3.71230133626361   -7.18153463087965
C          14.49820465766285   -1.31375656598909   -5.73208534916739
C          14.51682069626064   -0.38050853799483   -4.71172651478382
C          13.34248909198052    0.04733829485814   -4.11404417479546
C          13.39293115674122    1.14144154642100   -3.07320906295942
N          12.82589447605960    2.36195337010737   -3.60588916528532
C          13.54265181479380    3.22883282963884   -4.31466067567824
C          13.00027272990001    4.27183707823372   -5.01939685550605
C          13.68690213768121    5.23066148821427   -5.77166923122923
C          15.01391712442227    5.38276471613656   -6.13126099128296
C          15.46764933734007    6.48974649034762   -6.95082354530784
C          14.78844366871283    7.64693577865359   -7.25009079587466
C          15.30855784893757    8.67974458461200   -8.05509967802684
N          15.65942514985472    9.55925883984753   -8.70649265566142
C          13.51181481063601    8.01685764414314   -6.78172355664601
N          12.49432731849959    8.42592414051063   -6.43513447702888
C          16.83904500266847    6.21296656295534   -7.37066211897923
C          17.25912908493658    5.01389295393166   -6.73453529497277
C          16.15520150057882    4.48242157675887   -5.91228730871933
O          16.23820710888394    3.48484342176572   -5.21142759339175
C          18.50679084016439    4.49483220968816   -6.91841901443868
C          19.40983538305828    5.16168673821049   -7.77734019831618
C          18.99353772656701    6.35689081056189   -8.42884535906481
C          17.69466278938962    6.87386543397105   -8.20977068882496
C          19.89774896672097    7.00972074794233   -9.29048085690739
C          21.15421767827382    6.50904537431653   -9.49844529292789
C          21.56398161854654    5.33280246809379   -8.85419553897325
C          20.70999709554181    4.67384604892893   -8.01189195451646
H          -3.53487239176872    7.19303633758402   -4.46420837077985
H          -0.98426633136203    5.07107066904901   -8.18516508890830
H          -2.47992963509050    6.08565927655790   -9.79099871066301
H          -4.42821823476688    7.50094600841370  -10.30561161239836
H          -5.71106952424442    8.55832231328432   -8.48795792480700
H          -5.05250190742764    8.21004826597017   -6.13929808157347
H           1.54860574349810    3.63217679468973   -3.40101492024615
H           0.89112253854899    6.79908538333019   -2.21405320708061
H           1.13922382316128    8.19334282559490    1.22601140466429
H          -0.02411513844891    8.47570818765411   -0.08648103859270
H           2.85748842167388    8.25810958483964   -0.52436963749126
H           1.96675813714733    9.63563789438627   -0.57858400742949
H           0.80372682112137    5.96214173088017    1.95590227106339
H           0.66002223498753    3.57008046960561    1.47491668581230
H           0.67154769250821    2.07371164295306   -1.94859082735375
H          -0.34729179413100    1.94604559625566   -0.51337776911685
H           1.55683896635727    1.57003922506933    0.81404419715253
H           3.62406815328702    1.07207582773977    0.10540576738306
H           2.67257384924386    1.84019922126702   -2.70314306150705
H           4.30764460959486    1.58798615985430   -4.41490290869920
H           7.21576769645480    0.89474083918915   -5.88891583902612
H           8.78577878470156    0.13537117412829   -2.04287139240210
H           5.90395066355105    0.80876048847149   -0.58049351585253
H           9.72093768237229   -0.01323489926339   -5.73091616099003
H          10.86953078543351    0.16501195678494   -2.90217631865437
H          11.17946347819521   -1.79595819841196   -5.95707555973312
H          14.21633711021502   -3.34355424042499   -7.36700643852730
H          13.12236889275311   -2.27439692824788   -8.26317693305156
H          12.19184745237584   -4.25511857963540   -6.32816436260480
H          12.07135976921839   -4.35876788543922   -7.96155433805990
H          15.42596692750340   -1.64239000612203   -6.17710215841097
H          15.46089098699843    0.02432634713175   -4.37739988914777
H          14.43006493675891    1.33924146473344   -2.79598988321101
H          12.83708643787234    0.86252928243454   -2.17309336204637
H          11.81737976011885    2.37744063650174   -3.70288396433397
H          14.61530027766707    3.08846291931991   -4.29691741418328
H          11.92229568057261    4.38353356548474   -4.99498033839744
H          13.02927447014378    5.98438425222641   -6.18824066661833
H          18.80179366574711    3.58399144357852   -6.41833689237473
H          17.41142030739640    7.77966383847421   -8.72134909025056
H          19.57770238266912    7.91627502492165   -9.78327678762728
H          21.83943233181152    7.01719669892688  -10.16071950761228
H          22.55917746347474    4.95106430502138   -9.02876911156186
H          21.01990057876987    3.76670652279883   -7.51312829652281
