96
 SCF done       -172.696898435924          0.000515853361
C           0.56038969905309    5.91445879676481   -4.38588483417893
C           0.73804364628315    7.06415664472497   -3.65269964068463
C           0.35281021328697    8.34354792366297   -4.09066742279917
N           0.02331611415204    9.40453654539907   -4.38369495503072
C           1.41034212800696    7.08402086599387   -2.41544492567285
N           2.00071849278296    7.13478017200158   -1.43101205403319
C           0.20191287470838    5.86377039193984   -5.79956634636860
C           0.61302395703212    4.60157381751026   -6.31931231660966
C           0.44924103474240    4.28322814992784   -7.63549267034559
C          -0.15144141362429    5.22449402770243   -8.50362474113095
C          -0.57483775276482    6.48218030234507   -7.98644836309547
C          -0.38625877011916    6.78783683998532   -6.61816980405422
C          -1.17296771269280    7.41024682210678   -8.86213931847700
C          -1.34336312858709    7.11412227221967  -10.18723562129603
C          -0.92662902393875    5.87545680634435  -10.69588695260927
C          -0.34339924413097    4.95115902818062   -9.87190371062771
C           1.18834187152944    3.78919976744097   -5.22718102225619
O           1.68014037799150    2.68410205476812   -5.30185159286958
C           0.97725978735925    4.59127036102583   -3.99769053882365
C           1.09378615401650    4.00583944829898   -2.76545292291826
C           0.51374611116385    4.39746142690416   -1.55124629265120
C           0.82764227707681    3.94091390055661   -0.27949489661640
S           2.05310095043128    2.86683087276401    0.28143884173407
C           1.51266414442114    3.10027841401130    1.94106476482394
C           2.21833838914245    2.38162408215009    3.03105788539668
C           0.46709049971970    3.95255548819674    2.03830155398186
C           0.04491585892293    4.46412440196655    0.77843987114243
C          -0.94632585010324    5.33145647853130    0.32226868813732
S          -0.86051172697472    5.47925617705263   -1.41854211996858
C          -1.92878985789657    6.05869351050034    1.02746579830442
N          -2.87566057966476    6.80585989817190    0.35579262882617
C          -3.67468234834420    7.41485020376705    1.26657341739690
C          -4.77043706106999    8.25261990820047    1.41785579134456
C          -4.96337722354185    8.39465003164346    2.80035195236771
N          -4.00955116667407    7.65744412761453    3.47428691493560
C          -3.21541558905733    7.04319104745083    2.55968959354962
C          -2.12903333846260    6.19087984061559    2.41081998439284
C          -5.96848633926071    9.16312850348354    3.42729241858691
C          -6.11397630503885    9.37764416697202    4.76226027004463
C          -7.16091983066694   10.15146632166735    5.30880000219457
C          -7.34217571591261   10.48687974250683    6.64307422150183
S          -6.44793548003488   10.15468660637248    8.09210274364179
C          -7.60799684980639   11.07482444232107    9.03266861461656
C          -7.40854881274477   11.20912757186936   10.49659342682786
C          -8.60820337904773   11.59438413732194    8.27581538398563
C          -8.47915502977913   11.27216483860228    6.90177303976064
C          -9.22610879819575   11.55255380734897    5.73985214146768
S          -8.45267435529423   10.82180513640551    4.34372281039059
C         -10.40120143997981   12.29451331240091    5.76545468438209
C         -11.26659176187519   12.63065355940440    4.74536923424438
C         -12.48357353452719   13.39389814269605    4.88824507814329
C         -12.98556324589415   13.96006274126192    6.03703232411791
C         -14.18441650419899   14.69783219124264    6.09413329312084
N         -15.15037887624654   15.30822637580632    6.21415367921134
C         -12.39319412157456   13.89501468318338    7.31264387784855
N         -11.97524562507943   13.88565444960630    8.38431375709122
C         -13.11265863510871   13.46784597053635    3.57074998857596
C         -12.28756221889133   12.77636327464824    2.63788607756001
C         -11.11009885529952   12.24621769022113    3.34402335242085
O         -10.19259606712370   11.61054412812673    2.84583189067805
C         -12.61980462940226   12.66505877700991    1.31999849817087
C         -13.82201144593684   13.25143559151434    0.86189539160200
C         -14.65286287543665   13.94592799865329    1.78627912727941
C         -14.27864122497739   14.04570589153921    3.14772733351792
C         -15.84969998303145   14.52497314716511    1.31982277446333
C         -16.21140801530376   14.42278183581680    0.00360641599521
C         -15.39281589631125   13.73769036071473   -0.90550510733355
C         -14.22274363668734   13.16479532187627   -0.48516190081571
H           0.77594597356494    3.32604372944413   -8.01412315889898
H          -0.72041998169444    7.74496207509455   -6.24842154377209
H          -1.48927606337392    8.36410381404862   -8.46567063238324
H          -1.79961620865924    7.83364711586032  -10.85075238642744
H          -1.06935024152431    5.65704682067912  -11.74378044413491
H          -0.02008682004434    3.99558303813457  -10.25856831745643
H           1.63949860965353    3.06684871769839   -2.73729743490261
H           2.17252317057664    1.30479943679791    2.87077991356403
H           1.76579385388671    2.61607350085886    3.99131519925490
H           3.26946873422352    2.66788960318591    3.05638230295707
H           0.01088638541055    4.20795932089141    2.97580986589059
H          -2.92802402404309    6.88558005364697   -0.64544093468391
H          -5.36424155337800    8.72067022256243    0.65941992393968
H          -3.94193223130715    7.58514821011740    4.47396551558999
H          -1.53995398291454    5.73489127499542    3.17809203195493
H          -6.68114703545956    9.62606971414990    2.75837928862852
H          -5.41221707538828    8.96835417855288    5.47848626752179
H          -6.48927344709926   11.75578115560803   10.70787552617105
H          -7.32517311818585   10.22856494991819   10.96424749243294
H          -8.24495311165191   11.74418194908461   10.93884097460073
H          -9.40583198327425   12.18727978449852    8.68660593263945
H         -10.66326948993790   12.64160196009906    6.75623188620360
H         -11.97620388650359   12.13433298501702    0.63404879641735
H         -14.93193195890310   14.57716534830243    3.82116437367192
H         -16.47730035775892   15.05152930544293    2.02393978931195
H         -17.13118095317909   14.86959101393449   -0.34339229356143
H         -15.69307553312649   13.66547812948662   -1.94032360762168
H         -13.58775097553765   12.63554102516337   -1.18086379350781
