136
 SCF done       -200.738529248743          0.000573060281
C           5.95135161329226    0.84227325004818   -7.75299437211990
C           6.64075823288284    0.26927582215527   -6.50869906203959
N           6.12025087716416    0.69479842288173   -5.21672779389408
C           4.78808026448436    0.16341114563007   -4.90602424511325
C           4.56517308084752   -1.35655647240813   -5.16585678199949
C           4.51547170741829   -1.80325849287541   -6.60084153992245
C           3.50192420726652   -1.55841485304406   -7.41743649303296
C           3.37320164770178   -1.97055689575228   -8.85898532692602
C           1.95310505268994   -2.48061943861465   -9.14981721585934
C           1.69778507469885   -3.83853062605692   -8.49849272973607
C           2.71667065030492   -4.84589546150225   -9.03075008383821
C           4.10629648254239   -4.34602307939239   -8.61008768245560
C           4.39657983958086   -3.02195868650171   -9.30190921372557
S           5.40476884257730   -5.60246210406390   -8.92693563524143
C           4.46606909293807   -6.69151808290201  -10.05346260366765
C           5.33639816161200   -7.85465395601560  -10.50593394038428
C           4.56126039392413   -8.73397785506069  -11.48487861755432
C           3.23980148752720   -9.20074856412998  -10.88018169573204
C           2.40046910427057   -8.00526851043555  -10.43714405800666
C           1.09734976324877   -8.36439304559460   -9.87438260511714
C           0.06722242788308   -7.48331837360566   -9.81483415564836
C           0.00177710011522   -6.20923457013472  -10.56898744957298
O           0.85631174389761   -5.70059587105763  -11.27057143439862
C          -1.36603503112468   -5.69685437550273  -10.36851238245140
C          -1.94086906149435   -4.57573593889046  -10.89301024767886
C          -3.29540952349717   -4.29469825934360  -10.60413928464483
C          -3.94344950839256   -3.15698115314074  -11.12299811872222
C          -5.26079805804586   -2.91336259165760  -10.84290962293553
C          -5.98671756408577   -3.79578035990857  -10.02942511460094
C          -5.38566785115739   -4.90863425710826   -9.50709229809194
C          -4.03090129209779   -5.19032949806060   -9.77585671907152
C          -3.40604080908675   -6.33969363276330   -9.23926857633947
C          -2.08997768685670   -6.58839978220252   -9.52655738219239
C          -1.19647451192516   -7.66362299179217   -9.11767505829864
C          -1.46681754019626   -8.60738780484430   -8.16276713485317
C          -0.54054168431372   -9.55650953783401   -7.68344477648531
N           0.16597115586700  -10.33699674922526   -7.22380181965438
C          -2.70220288738517   -8.72114080059062   -7.49215971501157
N          -3.68623229813006   -8.86551939879760   -6.91846489192877
C           3.22646886954398   -7.21366621649908   -9.33197587248718
N           2.44764981250711   -6.21356120108995   -8.66488600399704
C           1.97728890724285   -6.55715815086723   -7.34240529429373
C           3.00671309796346   -6.42640893304441   -6.21382241776220
C           5.55598006383798   -2.19342204654209   -4.35242180386463
C           5.34306932640198   -1.96180702247315   -2.86123977658583
C           5.47150487237111   -0.47449408789228   -2.55401329531812
C           4.48784212144282    0.31511944160452   -3.40781430272920
S           4.41422977408862    2.06135913586578   -2.92184497154589
C           6.07126024418293    2.51268383175557   -3.53426393064902
C           6.22990818472581    4.00167253404725   -3.25256925281841
C           7.55865491819603    4.57921290742888   -3.75899987564025
C           8.69831247901555    4.03265806696858   -2.98260980192678
C           9.63937205018477    4.65832593285323   -2.25764572224911
C          10.47425173050451    3.82827203341787   -1.32881861161342
O          10.61127422694572    2.62855149161375   -1.37495721072133
C          11.01747088705963    4.77290448769160   -0.34248421193393
C          11.74462498457447    4.51175591130453    0.78360898463205
C          12.13687059866044    5.58387591397569    1.61460002342414
C          12.89613649697724    5.37558771986362    2.78317325106444
C          13.26009641633691    6.42870321957492    3.57721795563275
C          12.88006118351181    7.73623116699322    3.23810238206454
C          12.14269230716225    7.97285344108530    2.11030718618903
C          11.75306644815305    6.91179485543774    1.26730430856234
C          11.00466373347029    7.15296093703253    0.09298697431605
C          10.65144339989455    6.10087922080999   -0.71048388616149
C           9.94746599861885    6.05780273970236   -1.98829471579042
C           9.81012813368510    7.11910399640653   -2.83737574865831
C           9.39596736834406    7.03204429725191   -4.18330696988864
N           9.13910168526350    7.02442092816168   -5.30186379511512
C          10.18402366256997    8.44064775243378   -2.50713598681475
N          10.45499335511375    9.53505482121711   -2.29387787100168
C           7.67323561514236    4.22080062201030   -5.24623978569462
C           7.54455364841863    2.72299217690172   -5.50296252010067
C           6.20117019110722    2.15402405460974   -5.01715323659329
H           6.40273016651880    0.40755089132327   -8.64158437336341
H           6.05085120935142    1.92276248225281   -7.81363254902819
H           4.89383894339747    0.59422356657935   -7.75180704917617
H           7.70538835816689    0.50821099049767   -6.53480540417689
H           6.57339900046940   -0.81367739164673   -6.54447804132086
H           4.01193011953705    0.71758666754388   -5.46918255788433
H           3.56219016016054   -1.54580065390964   -4.75853662969415
H           5.35008134289596   -2.40319893108802   -6.93344891642095
H           2.66757569240700   -0.96670232390964   -7.05575282809924
H           3.53101211374259   -1.06651321465126   -9.46420327464379
H           1.81985511290029   -2.57703222649112  -10.22945321856255
H           1.22033141916445   -1.75698892943255   -8.78640285927484
H           0.68904056652514   -4.17929449314670   -8.74124271791030
H           1.78296862083656   -3.74246400078884   -7.41463449568022
H           2.64434706798475   -4.81090329144225  -10.12642668039189
H           4.12968629074357   -4.20456224597316   -7.52943132529289
H           4.32736013629005   -3.15740535033961  -10.38395610118239
H           5.41005921948992   -2.68728070342105   -9.07768709995958
H           4.18888492181178   -6.08527166637181  -10.91882528967722
H           5.63972506497284   -8.43834596013010   -9.63397638060190
H           6.24171453471253   -7.47008728983917  -10.97902754059169
H           4.35787446363112   -8.16507151752192  -12.39506889494763
H           5.16914888438844   -9.59742436697661  -11.75941034911410
H           3.43190312801572   -9.85152124159187  -10.02363806715079
H           2.68476094328564   -9.77943303563734  -11.62154625460887
H           2.26076684511769   -7.30765175043820  -11.26695326543926
H           1.00345398882783   -9.34327926367106   -9.42418013772288
H          -1.37069480502193   -3.91213321412848  -11.52643216789179
H          -3.37989601982505   -2.48162054122634  -11.75030475221282
H          -5.75064961032025   -2.04030867320269  -11.24765385912789
H          -7.02537029423159   -3.58954256098701   -9.81867531329599
H          -5.93988294004151   -5.59064956095163   -8.87901744699676
H          -3.99042629066926   -7.00279632338915   -8.62112278335343
H           3.54823497166491   -7.96002936323307   -8.59624980911356
H           1.10533064130188   -5.93932211200876   -7.11447315209226
H           1.63673246817483   -7.59678747564383   -7.38960255324609
H           3.95875178918098   -6.86121339147796   -6.50935337421904
H           2.64655189234652   -6.94865480899274   -5.33126522871142
H           3.17115746214035   -5.38470366458982   -5.94970116030728
H           6.57748405573995   -1.91745914049257   -4.61628201073607
H           5.41536717134293   -3.25130861384073   -4.58674718182648
H           6.07974873149772   -2.52346925301938   -2.28423780988765
H           4.34956757916381   -2.31408183892840   -2.57134815291767
H           6.48809761170708   -0.15824080181922   -2.78842730553076
H           5.27586985958283   -0.27951374247183   -1.49789414957633
H           3.47111728534660   -0.03839513355122   -3.21249782465585
H           6.78964445680544    1.93357901079457   -2.95192182594405
H           6.12788982917126    4.16647581283287   -2.17740432995144
H           5.41470914442532    4.53688717234429   -3.74545703568800
H           7.51876036909465    5.66671226540348   -3.65549332461423
H           8.74954341410437    2.95079685402551   -2.92676547309362
H          12.01754809397483    3.49789700208018    1.03612937524922
H          13.18519072550231    4.36667351156073    3.03880960650004
H          13.84228926384616    6.26061243003080    4.47083674041157
H          13.17587457240709    8.55579990018862    3.87564067500771
H          11.85132105202499    8.97802286142497    1.84326058464287
H          10.72078383398207    8.16759705937403   -0.13829368110701
H           8.62629435061470    4.57588268528865   -5.64072120072781
H           6.88029152798244    4.74888142176552   -5.77993335591325
H           8.35394336382309    2.18216352193641   -5.01081473244771
H           7.65171034256214    2.58321820430052   -6.57655143190417
H           5.38011629646441    2.66452320607399   -5.55704856813140
