140
 SCF done       -244.319070606478          0.000282545648
C          -7.16142360516929    6.42590466163941   -8.34387998227958
C          -5.93355056127321    5.99708628378769   -8.77749075494187
C          -5.70379450030512    5.41085892137222  -10.04002249970479
N          -5.44413203836575    4.91850805547087  -11.04449148833245
C          -4.72102956376251    6.07100227630943   -8.06002136440556
N          -3.68586728862577    6.09020211835040   -7.56166861217622
C          -8.38840024183386    6.38968279265542   -9.13160964996462
C          -9.43498619615829    6.97517685051871   -8.36478504802876
C         -10.70667642406499    7.09196327979387   -8.84612960048799
C         -10.99573537178017    6.62411513185502  -10.14787882268731
C          -9.95550406484138    6.03422344289391  -10.92135852073995
C          -8.64876257856877    5.92262424023261  -10.39228773101892
C         -10.25371952300357    5.56960950263461  -12.21820899137736
C         -11.51795645739348    5.68332143566530  -12.72949858164259
C         -12.54150347855220    6.26503269196632  -11.96714817478344
C         -12.28587321059780    6.72529767605304  -10.70375293756272
C          -8.90505240937530    7.38988801972326   -7.05751078581085
O          -9.55178892200856    7.85202578428662   -6.13166812458223
C          -7.47213331002612    7.05032690051735   -7.06926601589744
C          -6.58241374876559    7.17728372606312   -6.03733022028114
C          -6.64755019159897    7.84930421924555   -4.79586371971384
S          -5.65842630937324    7.09597208864648   -3.56008602788706
C          -6.16385892865194    8.23738515534766   -2.36287619015906
C          -7.02058664524107    9.18098250043205   -2.91633956361885
C          -7.25982604712544    8.99721291351778   -4.28761780861168
C          -8.01320069873327   10.01873144889315   -5.09380153295116
C          -7.13776850463805   10.59933562160511   -6.19850505513968
F          -5.97403510462606   11.07535285332056   -5.72241390044165
F          -6.81464675374843    9.74516775194733   -7.17913876688478
F          -7.74186812796718   11.63336357062301   -6.81087269396676
C          -8.50576809880663   11.20649971223614   -4.24978426801303
C          -8.92035049101202   10.75258807052605   -2.85989458380403
C          -7.68294202158001   10.26056641370018   -2.11888189367451
C          -5.67870839397198    8.18290061636036   -1.02746661574263
C          -4.85186615998455    7.21284030933534   -0.57720956714967
C          -4.25007707635519    7.11056815317233    0.72357846618050
C          -4.28350782724849    8.12831124756591    1.65209784828498
C          -3.60822859096786    7.99419768312144    2.88118649006459
C          -3.45222851242587    8.86873649132233    3.94811561306771
C          -4.13631463583966   10.16616818238979    4.23179560843690
C          -3.90077260227144   11.23053208023344    3.14471532910598
N          -3.84460242699605   12.54325705952895    3.76078391333025
C          -5.64067181238949    9.92116615273200    4.45407606099432
N          -5.85469327374708    8.97282362947715    5.54496330351001
C          -2.61425307671987    8.19809736350419    4.91266862408279
C          -2.08878349412715    8.63291245293565    6.07177726685894
C          -1.37460307908007    7.70999825701335    6.99088917130358
C          -1.13176369904158    6.33780680735876    6.43417765916695
C          -1.56637482915939    5.95844082056705    5.21936184737902
C          -2.31982473665366    6.85023742994993    4.41521793397848
C          -2.89333699018407    6.75065560612021    3.16506296098383
C          -2.89429512916468    5.71378648904809    2.20213181727883
C          -3.54353750512104    5.89605085794217    1.02763962421285
C          -2.16644079319582    7.59794638331109    8.27341929364863
C          -3.44175202236494    7.98457519977113    8.36032140931225
C          -4.23979411745884    7.95671455970793    9.54792532388417
S          -3.80436636414922    7.00811759135262   10.92606937558567
C          -5.25165157978412    7.49027122409386   11.77676599136865
C          -6.01245914921473    8.35704721261414   11.00374901209059
C          -5.43048639572874    8.63596474049231    9.75684961931948
C          -6.02262235257927    9.61935596826513    8.78280629735189
C          -5.19566329045975   10.90507101716115    8.78701819733470
F          -3.92949061953767   10.74362117858539    8.37682513337292
F          -5.72662105067608   11.83450688065419    7.97391147572252
F          -5.12352891332966   11.46583555875745   10.00498480075757
C          -7.47842706167226   10.01215766371750    9.12068071916944
C          -8.15984976773240    9.01283915280637   10.04663903924238
C          -7.36457553248871    8.88693908255207   11.34561820675531
C          -5.52394029649265    7.01412375587499   13.07765818365556
C          -4.71800738966931    6.15781310007219   13.76407515662009
C          -5.03666307661610    5.71031582110068   15.06098309828685
C          -4.28030193927813    4.83721252682742   15.79604798018813
C          -4.56906441542253    4.35004592034593   17.12976358268468
C          -5.65587041799281    4.66177613945150   17.90860491496126
C          -5.87668894663819    4.14658855619795   19.20249909552195
N          -6.12121986102368    3.76665148791450   20.25841754129165
C          -6.70889055178757    5.52583567189153   17.54684464145388
N          -7.60634107574518    6.21061257067297   17.33115672061722
C          -3.49041076033840    3.44551445135914   17.51701254892208
C          -2.55621573992428    3.36726390161469   16.44566992703526
C          -3.00813840578716    4.22671143437608   15.33691007821997
O          -2.44225014767098    4.38686131988057   14.27413492995040
C          -1.43794413693788    2.58866689841903   16.51658520388738
C          -1.19499708244062    1.83626765019106   17.68754046654152
C          -2.12239759176141    1.91066536598422   18.76603838276217
C          -3.27290899274233    2.72628487836231   18.66239351882514
C          -1.87029555359604    1.15736187005648   19.93066072269293
C          -0.75711521734422    0.36750153538492   20.02657643196000
C           0.15482589058988    0.29429010548488   18.96322634406333
C          -0.05951406333309    1.01329381577471   17.81866780147655
H         -11.48324221608370    7.54022102880172   -8.24394649461187
H          -7.88580716471541    5.46792397165613  -11.00343733856825
H          -9.46154849009559    5.12331487782969  -12.80136719141990
H         -11.73589436069047    5.32590518061488  -13.72481406063834
H         -13.53353452260341    6.34699556880669  -12.38577659132642
H         -13.07058398929297    7.17424980322193  -10.11226159503209
H          -5.66588886507653    6.60668797100857   -6.14217019414595
H          -8.86906840773972    9.52284212392769   -5.57130926989943
H          -9.33926223935553   11.68359796936397   -4.76643597789302
H          -7.70415860468610   11.94411604845524   -4.15496494193458
H          -9.65034701223873    9.94517434046304   -2.93901564805823
H          -9.37845415424079   11.58086925466910   -2.31838928868225
H          -7.95913089970803    9.87392887247925   -1.13593572428164
H          -6.98717837031948   11.09245904087517   -1.96911178946419
H          -5.99599744199232    8.98422987986653   -0.37620953696661
H          -4.59734945274491    6.41832369008980   -1.26948873806131
H          -4.78906320758798    9.05444898729662    1.42745096100198
H          -3.72757260844035   10.57340189161260    5.16018723245199
H          -4.67735693703505   11.14762085489080    2.36492372893763
H          -2.93145325580244   11.04997335943819    2.67172298734868
H          -4.72864107907602   12.77220694499398    4.20193329434657
H          -3.64354245283399   13.25750677007997    3.07048699424116
H          -6.08529896354825    9.57164296923222    3.50870524814994
H          -6.12846873171897   10.85782254145277    4.73951487820044
H          -5.35198188513711    8.11327418825368    5.33541808062827
H          -6.84218348251343    8.73720227636159    5.59047704166433
H          -2.21557983735224    9.64904143901209    6.41838146643322
H          -0.40262762270252    8.15213418861164    7.25717710003336
H          -0.58553940679800    5.65945280088869    7.07131280584660
H          -1.35838161001683    4.96576138327699    4.84683560631550
H          -2.36515386478897    4.79551044354173    2.41014984723972
H          -3.54163608927117    5.11786477851051    0.27832216031286
H          -1.64943579394984    7.18721710361033    9.12918272062566
H          -3.93679156858846    8.38593653714042    7.48698374135601
H          -5.95307312208086    9.23044574564591    7.75722482675525
H          -8.04299476707266   10.11496743988595    8.19372371869656
H          -7.48274710102022   10.98591817492531    9.61622229215779
H          -8.22253980785952    8.03516097541935    9.56436035026096
H          -9.17313335156326    9.35454028115475   10.25943523281339
H          -7.87396035446882    8.22171814179062   12.04293609585176
H          -7.27409233736626    9.86884059942755   11.81913263116245
H          -6.43494916957781    7.36834682538865   13.54407710589435
H          -3.80471672905752    5.80134688967847   13.30937684208926
H          -5.95243317356553    6.09534256928154   15.49125407180477
H          -0.74654277630357    2.54728205197964   15.68793661052782
H          -3.95431610853380    2.75904900636388   19.49743390415825
H          -2.57556050865460    1.21668055913213   20.74668933915981
H          -0.57304255787310   -0.20575929534705   20.92290292458481
H           1.02795249722694   -0.33439450791189   19.05552775941434
H           0.63919800834651    0.96126947007224   16.99633417012181
