113
 SCF done       -201.761331236949          0.000912792712
C           0.25093348030939    1.71505803515386   -0.36148501077907
C           0.93837777948482    0.95483862789912    0.54487882432398
C           1.18849362702128   -0.42562254767426    0.38833470984393
N           1.41595012818337   -1.54830304393149    0.32526148534853
C           1.45338678982291    1.43918574683262    1.76556769961751
N           1.89782387532440    1.78442066547746    2.76611994942299
C          -0.30499207656847    1.25299113733520   -1.62588179495097
C          -1.09150133135887    2.29730818635751   -2.19557353330716
C          -1.72243388164190    2.15251330261307   -3.39812054180241
C          -1.57104324678594    0.94456532874637   -4.11211545949717
C          -0.77483216248656   -0.09942694833669   -3.55679291932738
C          -0.15169339152349    0.07012109550752   -2.30067641291111
C          -0.61760646033196   -1.29424980782959   -4.28765156461017
C          -1.21582372005571   -1.45137228911902   -5.50810586723831
C          -2.00027773819264   -0.42358269192364   -6.05268934168281
C          -2.17472975336448    0.74913489180931   -5.36939801481409
C          -1.04175533592538    3.47444078705749   -1.32295255478180
O          -1.70341133322534    4.48847368141105   -1.39663084000116
C          -0.05298307562187    3.13484779481172   -0.25376092227325
C           0.46525854134100    4.05550323100666    0.59714785066891
C           0.23404099153070    5.46139342009746    0.44825975965957
C          -0.12046005925977    6.29857362662274    1.46135787534567
C          -0.55735506249952    7.55471837605499    0.88600386926639
C          -1.03143942954049    8.65271947475141    1.61866447318823
N          -1.40304681119608    9.56537439059892    2.20655542234982
C          -0.44146124164683    7.49194025740915   -0.47387192781242
C           0.16221589043273    6.23131703689409   -0.82039341786055
C           0.71251329913199    5.87288823534921   -2.02221859280278
C           0.38871694749503    6.45519280505802   -3.34251484769015
C           0.53868428505483    5.45858653424200   -4.25700117968083
C           1.14774376212729    4.31019091272623   -3.61300576039968
C           1.32738453615585    4.59049611250086   -2.28916294003378
C           1.45011468442318    3.09807836145731   -4.24647054276478
N           1.65032172905369    2.08768432533322   -4.75376028131218
C          -0.00059043617977    7.79978429129864   -3.67633923921462
C           0.47781901051154    8.90312270902169   -3.07888463061698
C           0.05113904001108   10.25352103150046   -3.41214603378239
C          -0.28524872676564   11.11762141096102   -2.38614833388827
C          -0.92546645873197   12.32804129731711   -2.63786388345257
C          -1.22748615865729   12.72953549354723   -3.92430544004382
C          -0.73521186653107   11.94584063099046   -5.01369703145959
C          -0.09884558387876   10.70089945743738   -4.75434575483178
C           0.40890374500096    9.99695103270971   -5.86690245489631
C           0.24374134026712   10.50337160542251   -7.12757722867130
C          -0.41440635651834   11.73449123623596   -7.27030411428830
N          -0.87005684657993   12.42435822000676   -6.26456193593021
C          -2.00647356098074   13.92897061239230   -4.15968649384151
C          -1.87750951665493   15.12065075414829   -3.52874332569931
C          -2.77068863293998   16.08084191380357   -4.16767322987337
C          -2.94259009834318   17.40560830417008   -3.74880366263739
N          -3.07580442987098   18.49334581638155   -3.40607525588182
C          -3.39976232086510   15.48052335290886   -5.22266353912637
C          -2.99970101688805   14.10146942035074   -5.24467599627354
C          -3.49370605069842   13.09285865153662   -6.02740416340689
C          -4.11110272442162   13.18954718556004   -7.36765807926873
C          -4.41568612519103   11.91468035816634   -7.76384830373134
C          -4.06935789034892   10.99664861620308   -6.70407681892889
C          -3.50844126768108   11.69841170643849   -5.67228245920272
C          -4.23525007933861    9.60611505133649   -6.75578765833771
N          -4.33329494474802    8.46346969082677   -6.80648680857488
C          -4.20302909026327   14.38451331627957   -8.13612877277653
C          -4.85688600710775   14.48628687842787   -9.32197202879314
C          -4.95229846601519   15.66406294146781  -10.10726073804542
C          -4.98377071104428   16.96252434277839   -9.68219682830032
C          -4.99629011836030   18.12451161588544  -10.55465237271891
C          -4.56070271638783   18.15866107813830  -11.85371740503647
C          -4.56689804693349   19.31831110362786  -12.65616696272124
N          -4.55511837836902   20.22723530082104  -13.35723215968371
C          -4.00929294653756   17.05833959765011  -12.54306588284148
N          -3.52953984737746   16.21122474836832  -13.15231702547461
C          -5.45295392722928   19.26742705250869   -9.77632724490676
C          -5.63032383242071   18.84811516100868   -8.42685830596479
C          -5.31243646045811   17.41809340177765   -8.30676027250581
O          -5.38382809717135   16.75236144506388   -7.29283874352849
C          -6.03995125148858   19.70935611465644   -7.44954992636323
C          -6.30577432503744   21.05478382988255   -7.78780246919732
C          -6.14679850843935   21.47913688630298   -9.13911964026046
C          -5.71311981620761   20.56536790007308  -10.12746248221190
C          -6.42797066529455   22.82109243349184   -9.46597234683163
C          -6.84384418349740   23.70308832155536   -8.50567742274210
C          -6.99606694634576   23.28499069884676   -7.17527540565326
C          -6.73149669282998   21.98906735270356   -6.82339916271028
H          -2.31371451970047    2.95877326156549   -3.80704914554250
H           0.44841305321499   -0.73588070787519   -1.90883524025496
H          -0.01158877955782   -2.08203734403429   -3.86547529001151
H          -1.08629231064407   -2.36872684944223   -6.06237106530979
H          -2.46406744846521   -0.56462289737883   -7.01745390082656
H          -2.77593747371469    1.54500676771366   -5.78400944720700
H           1.04356837637782    3.74418883885224    1.45768147224983
H          -0.17889760457143    6.05670498169011    2.50640784314428
H          -0.71695194588151    8.26329551505506   -1.16363100587401
H           0.31724547890392    5.51105505594761   -5.30697151976293
H           1.83477956865311    3.97358590584152   -1.57509794143031
H          -0.67688463814997    7.89445507551868   -4.51692967188895
H           1.16127649326991    8.81213731538267   -2.24332555243203
H          -0.12181202827152   10.81789003614162   -1.36054271052830
H          -1.25138687142461   12.93309475895989   -1.80523598612331
H           0.95439298673577    9.07813794858123   -5.70956385687859
H           0.62854928471151    9.98985755378063   -7.99434818184641
H          -0.55379120316127   12.17922248139282   -8.24745069065232
H          -1.20772988688503   15.36758570707769   -2.72628780324113
H          -4.17011996329809   15.92150638175227   -5.82528315190542
H          -4.81479004564289   11.60238021818220   -8.71063302201586
H          -3.22062882615468   11.29747928091178   -4.71933679031762
H          -3.67261942948398   15.24335909082951   -7.75976946511364
H          -5.30029763980027   13.60047557494407   -9.75784915275641
H          -5.07030039791232   15.49075602449246  -11.17151463489441
H          -6.15731410503330   19.36955864932003   -6.43114737003396
H          -5.60543659731332   20.91516028846237  -11.14208192054391
H          -6.30657870987599   23.13950884474409  -10.49096354279299
H          -7.05692739418401   24.72891082086686   -8.76651207721407
H          -7.32418666847499   23.99459306270595   -6.43064579701952
H          -6.84523599863261   21.66076793501868   -5.80078555749364
