110
 SCF done       -200.046839943801          0.000914148304
C           5.34893179413977    7.06630509455479   -3.02675579878304
C           4.51653933207388    8.15454930987707   -3.06998628354752
C           3.56189986628854    8.38612106565403   -4.07772058569653
N           2.73221127046277    8.60922145200694   -4.84007771432596
C           4.53802134877212    9.17368422506852   -2.09766574438207
N           4.54864973815547   10.04259672980876   -1.34749027315706
C           5.54522259116911    6.09986569618734   -4.09596349475685
C           6.77445583907767    5.41237337420548   -3.87018490279239
C           7.20623229680574    4.42805169223058   -4.71196704746616
C           6.41107698296318    4.07477078900378   -5.82494483265701
C           5.18176787940147    4.75888244027958   -6.05501200441433
C           4.76561417608776    5.78306208031329   -5.17668860904666
C           4.39201759750086    4.38489049104263   -7.16072214615346
C           4.79511576703456    3.38379645246070   -8.00114640725684
C           6.00640387264800    2.71305690431596   -7.77614972076354
C           6.79807611358654    3.05231874852688   -6.71267035920377
C           7.39106518255235    5.90605357211331   -2.62658639287755
O           8.46264189665114    5.61519543316745   -2.14984950011786
C           6.35323594925179    6.78773877150406   -2.01098465938402
C           6.37905290149548    7.00393138705463   -0.67207566621127
C           5.32989403457786    7.45133963532266    0.18579609200095
C           5.49269690579113    8.23270654061794    1.29192960434395
C           4.18523107087149    8.62436941696639    1.77667708159949
C           3.96896004569851    9.40229661601708    2.92187347303683
N           3.80834385872657   10.04119621392325    3.86158213213543
C           3.22184397836776    8.11283156757048    0.94574672337273
C           3.87327421946656    7.32210982723439   -0.05460041788954
C           3.30166731160753    6.50513372829327   -1.00189902738033
C           2.03766406150381    6.72601146215447   -1.74391063618389
C           1.92430344553529    5.70760887453996   -2.66081339220806
C           3.04228134481835    4.81990704105507   -2.50807906591140
C           3.88803288220820    5.31760227301390   -1.54197606980178
C           3.27114986185013    3.67169175649244   -3.27960184856692
N           3.48461451281429    2.75530910255628   -3.93675344727420
C           1.25618408450690    7.90046188759933   -1.62100600656424
C           0.22254682698946    8.22572537173690   -2.44196898667747
C          -0.58689677858998    9.38180278798148   -2.34837331707756
O          -1.48124397868486    9.53293997751031   -3.34936871813490
C          -2.19387221528159   10.65793956576027   -3.14174004880688
C          -1.73514711554474   11.27569527448571   -1.98809688887107
C          -0.71471297891975   10.46836260516615   -1.45687082971022
C          -0.01838567309027   10.73055847949369   -0.18635771867656
O           0.57168439977427    9.87227356284006    0.43313888479266
C          -0.11915566983219   12.14387114210249    0.31974410110814
C          -3.21699078836254   11.07459129704419   -4.03844918975427
C          -3.78834649655850   12.31846152846133   -4.03869931818228
C          -4.64859543851503   12.42783192528804   -5.18872041605811
C          -5.43465142186852   13.54226227375035   -5.51211845537719
N          -6.06715286019137   14.45896380425828   -5.78981187256935
C          -4.56904632974243   11.27281092128571   -5.92773215091301
C          -3.72477329195011   10.35114937549730   -5.23369184498929
C          -3.54829104433148    9.03106602312308   -5.57383771736640
C          -3.72527623938671    8.42997887464666   -6.92047027684856
C          -3.54232850144959    7.07953935020537   -6.78527776502526
C          -3.28397056160796    6.77977403774777   -5.39868964542315
C          -3.26172970197685    7.94902115962769   -4.68174129189817
C          -3.05871106677047    5.49682731609807   -4.88180760807188
N          -2.84523925175911    4.44939504836870   -4.46358371292782
C          -3.89034331618344    9.15936025863609   -8.13186279733336
C          -4.17992752746015    8.59400835129927   -9.33309113034647
C          -4.31467054535873    9.29658326196474  -10.55903745269515
C          -4.77340614284053   10.56926952207865  -10.75217504194136
C          -4.75787090891601   11.29647715276653  -12.01030032607036
C          -4.03719034032126   10.96627164050754  -13.12894748986025
C          -4.04809046985990   11.71512175436184  -14.32433961051372
N          -4.01779501175045   12.27525878712374  -15.32595340463967
C          -3.17022319250144    9.85923919516325  -13.23958050718981
N          -2.43144818502131    8.99429100781273  -13.39849790340704
C          -5.57184187863300   12.49449039991528  -11.84835907241735
C          -6.05597928347493   12.53366105249991  -10.50940432154322
C          -5.59525470574450   11.34306901337488   -9.78553152754295
O          -5.91131184070953   11.02353346968834   -8.65625285004457
C          -6.82685910634767   13.56115395734466  -10.04516656306028
C          -7.16160275329776   14.61628077456550  -10.92223651332153
C          -6.69967983553190   14.57605617881603  -12.27012626808762
C          -5.89817713014377   13.50071498385172  -12.71873812036694
C          -7.05214244570783   15.62851625733272  -13.13902264196870
C          -7.81961957955689   16.67250905635456  -12.69832181259534
C          -8.26826342596045   16.71356667536013  -11.36966196795071
C          -7.94560872927237   15.70755851234252  -10.49948311018214
H           8.13939346886538    3.91750175244678   -4.52614342300246
H           3.82522244513312    6.27947075646084   -5.36223924469233
H           3.46023666923955    4.90434839288270   -7.32894168203106
H           4.18153759107004    3.10154031108967   -8.84333743080784
H           6.30784562237392    1.92358815457094   -8.44806777008490
H           7.73002786455791    2.53681535789267   -6.53320766433487
H           7.32131310283439    6.76865291235017   -0.18534651277996
H           6.42164519767324    8.57428303388164    1.70883006956787
H           2.16344902716571    8.18771606363521    1.10363214596967
H           1.14462295807153    5.56817466772683   -3.38491004275727
H           4.77007244713866    4.83333979097342   -1.16804256691696
H           1.52575701292956    8.58898624902338   -0.83839071881298
H          -0.03727062563642    7.58235111869561   -3.27212830538843
H          -2.12346849330820   12.18022459679892   -1.56907732238782
H          -1.13394533550337   12.33601325755522    0.66409117821208
H           0.12141573353084   12.85297090939055   -0.46826234634424
H           0.56303979313994   12.27216263192607    1.15615035498265
H          -3.61857038289993   13.11011430354866   -3.33451057891413
H          -5.16353531493783   11.05266696744211   -6.79230714267775
H          -3.54184136097935    6.33924249824775   -7.56271057332412
H          -3.17233793662696    8.02125248443998   -3.61628547606821
H          -3.72018393540996   10.22363116717803   -8.08890505186162
H          -4.25111716274612    7.51664044593278   -9.40409212144503
H          -4.05158047406521    8.72231075845135  -11.44028444616611
H          -7.16906059839182   13.57353149911315   -9.02074367712922
H          -5.56485328269466   13.50037708492340  -13.74440751199241
H          -6.70182442799065   15.59490326488034  -14.16025781583328
H          -8.08384030406581   17.47389561349450  -13.37194222284441
H          -8.87087888989869   17.54621655278643  -11.03920279242765
H          -8.28522189093477   15.73268278369894   -9.47465713926614
