122
 SCF done       -218.836908432555          0.000334889977
C          -4.72885648342551    5.76937088655055    1.49587990550230
C          -4.82167203922499    6.42532439167545    0.29224975173017
C          -5.57782940189588    5.95842542148157   -0.79912761189544
N          -6.16135338693112    5.61087588453052   -1.72529544109259
C          -4.24304097323493    7.68715467887933    0.05666959113497
N          -3.81468450674439    8.73232505105990   -0.15262930569929
C          -5.55007328941879    4.63027834547435    1.89463238934193
C          -5.57105226079409    4.56853312721482    3.31871041889318
C          -6.29955466127219    3.62621104287308    3.98403803016855
C          -7.04271525228692    2.67930203920215    3.24232668418976
C          -7.01082397051412    2.72514274664794    1.81882748188188
C          -6.25331988310265    3.71892171552033    1.15594176237667
C          -7.75050235918835    1.77067762778708    1.09212679045501
C          -8.49046743253526    0.81788316562072    1.73803305727893
C          -8.52284057372739    0.77449926886925    3.13955547750391
C          -7.81454057680817    1.68554381582047    3.87542093463738
C          -4.70480450002911    5.63139469918981    3.86373173239475
O          -4.51305488756622    5.91710411928222    5.02438666296059
C          -4.05273961699058    6.24746895407091    2.67710159248651
C          -2.95043925759391    7.03707131334281    2.85561708305494
C          -1.92402589061483    7.34977985021800    1.95080802561277
S          -1.60384182852992    6.42767545724782    0.51655682434548
C          -0.23248659914912    7.37774881481862    0.08012554040820
C           0.01589490188776    8.36601065704987    1.04236693112964
C          -0.94103848437034    8.34814880817516    2.10620658259908
C          -0.84640709668353    9.28231686554082    3.14497066441646
C           0.19828091509039   10.17542935067055    3.13525212534194
N           0.30931238130616   11.13855430558309    4.19923784097946
O          -0.51336037102842   11.09328292625101    5.08965741612257
O           1.22134596798000   11.93718152304841    4.14277268927705
C           1.18432823272310   10.16293259616610    2.12672800621616
C           1.09950870893730    9.27002129284951    1.09950458383342
C           0.45460258426735    7.10654812660909   -1.15239389668663
C           1.00358423724195    8.12612890592615   -1.90051624616265
C           1.63910806947465    7.83647674714452   -3.12193475033370
C           2.25896657898104    8.67549747859136   -4.04450791682239
C           2.46706393060660   10.13896793301160   -3.81657891501448
C           3.67079138475265   10.35392491039580   -2.86275722353475
N           4.88795733499896    9.74622562023543   -3.38026667525457
C           2.56715040356191   11.03857203985999   -5.05964591107886
N           3.83599312468787   10.94243077312834   -5.77343051243660
C           2.72605013612430    7.82841854302757   -5.11465970268272
C           3.36778304963486    8.11877692780780   -6.26321654207223
C           3.79193850497643    7.05541190644935   -7.20971736249773
C           3.41373582049595    5.65928181774278   -6.80503291891640
C           2.74437550267958    5.39394092695368   -5.66895452354399
C           2.37163824346954    6.44004206110559   -4.79005435339077
C           1.70154599210504    6.45718162208146   -3.58356411584964
C           1.10745477735894    5.43683872240838   -2.80569437303956
C           0.50071880801788    5.75677304472141   -1.63624548934439
C           5.27879615143750    7.08801741615988   -7.43393365665366
C           6.12889910396069    7.73491311608552   -6.62306133337869
C           7.54100501792094    7.78464213757856   -6.80566352742024
S           8.34660057366500    7.01967326685321   -8.11343321709691
C           9.91203545012553    7.59244799846457   -7.59701923917478
C           9.79336920224045    8.36001573168002   -6.41258852011847
C           8.44413567354151    8.46923861090023   -5.96414503184891
C           8.14314621412820    9.18880036097235   -4.80304734656143
C           9.17566747676869    9.77674990524083   -4.10763477405251
N           8.88790812050387   10.49878740075882   -2.90283212206990
O           7.74933100395026   10.44364062689501   -2.46976431392899
O           9.78656352533451   11.11778011084372   -2.37760809150807
C          10.51239144800950    9.68539325380168   -4.54555745449208
C          10.81985171559261    8.98876238193955   -5.68071783142955
C          11.13043670681432    7.36246252094423   -8.23883605003023
C          11.42677165836295    6.65499853412217   -9.37925595125846
C          12.74694368864815    6.50899487466435   -9.95949462251368
C          13.92426372368458    7.04388026243200   -9.49783546584954
C          15.17449535879124    6.86130210396385  -10.12478251469790
N          16.22222806684303    6.75485833573576  -10.58211039737493
C          14.06881718531637    7.84413211948517   -8.34697219236250
N          14.26156528139670    8.50051768454798   -7.42298463407073
C          12.61112478515344    5.67818409631503  -11.15249183343840
C          11.24051137099001    5.31732625250541  -11.30040133576852
C          10.46663105094837    5.91879934620698  -10.20599143776233
O           9.26239233475746    5.82082235150292  -10.02470284431830
C          10.80531158173041    4.53403142219906  -12.32970404086346
C          11.73960422804167    4.06707173223710  -13.28171525267469
C          13.11116552416589    4.42643343614273  -13.14467364349536
C          13.53186421413248    5.23798444779338  -12.06504482730062
C          14.03435100871048    3.95896480831627  -14.10131492556336
C          13.62452710665703    3.17257509929019  -15.14397492244196
C          12.27423741192010    2.81762609716787  -15.27681386486704
C          11.35151622090781    3.25560586888372  -14.36537551767155
H          -6.31133467843249    3.60207318820317    5.06357513783088
H          -6.23976276948191    3.72839527058278    0.07704692339646
H          -7.72538463940523    1.81077041936657    0.01293039721741
H          -9.05595456877075    0.09277962460909    1.17197667298747
H          -9.11161345441294    0.01594942747863    3.63342815185815
H          -7.83583676527167    1.65701489299202    4.95509243792808
H          -2.81093240668983    7.39383344048689    3.87177273998931
H          -1.56826436647312    9.31157754995401    3.94623624987150
H           1.99886014327223   10.86640402181512    2.19828963305681
H           1.86870220227607    9.23292725446188    0.34573850390740
H           0.88371309238200    9.15195197678052   -1.58822708463569
H           1.58549106530675   10.49719632113781   -3.27028674246709
H           3.39331428288403    9.95915006246225   -1.87253423743397
H           3.84843239390855   11.42770736524637   -2.75608716250497
H           4.80219974917811    8.73453776635891   -3.33895668782701
H           5.67972964192835   10.01955395678934   -2.80427600146067
H           2.37571674719774   12.06660617217221   -4.71258150390929
H           1.76277793359567   10.77396335638102   -5.75657456716302
H           4.58778364032014   10.83457033930915   -5.09642228753421
H           3.99686995517738   11.78932547946884   -6.30706311316497
H           3.62803386682721    9.14336469708954   -6.50576478619587
H           3.31613183103590    7.26756042711525   -8.18101108260344
H           3.71496781188966    4.87054689412560   -7.47696004476785
H           2.48180775310629    4.37764865671384   -5.41214403488179
H           1.13682588283001    4.41466660619130   -3.15232781363554
H           0.04102474623245    4.99058487562574   -1.02882313747602
H           5.64986521577589    6.52078432721328   -8.27681135639914
H           5.73651991896828    8.28340176597921   -5.77802227277714
H           7.12765649121063    9.29492826087970   -4.45475271535134
H          11.27883139940874   10.17246389658538   -3.96331892960969
H          11.84735095522434    8.92584214174531   -6.00262358409530
H          11.96898096056804    7.83105905194126   -7.74343894593621
H           9.76096928098386    4.27347600137047  -12.41804144377680
H          14.57763123355698    5.48971755351162  -11.99059873337477
H          15.07322826742909    4.23459975677940  -13.99449030287999
H          14.33953607317049    2.81976563123053  -15.87192153688588
H          11.96818229026045    2.19591298220050  -16.10482509416585
H          10.31007562642339    2.98568602428848  -14.46308169549466
