116
 SCF done       -222.784418489394          0.000741246296
C          -1.10723703553236    2.38908739663121   -4.35092591296614
C          -1.39030097697121    2.35765088630061   -3.01110024254157
C          -0.66355348808840    1.59517442109205   -2.07516891960943
N          -0.08519003363606    1.01133395510734   -1.27384780361386
C          -2.50647179925453    3.00868245427262   -2.44519657825687
N          -3.43620779721651    3.48224988283433   -1.96684103192573
C          -0.18418674438214    1.50026713731777   -5.04585475243532
C          -0.55137865544156    1.45729842524388   -6.42348465251502
C           0.11255884248537    0.66685748909263   -7.31673644609376
C           1.19773044516958   -0.11939854159577   -6.86781785846912
C           1.57843416576697   -0.06857850022613   -5.49531759529902
C           0.86780439639361    0.75290319488476   -4.59016813170830
C           2.66676376276989   -0.85339962857604   -5.06325569441789
C           3.34608900336372   -1.65279576818625   -5.94175927214690
C           2.97010556158045   -1.70303795824265   -7.29237386827971
C           1.91867536718549   -0.95316670722824   -7.74527972839606
C          -1.68075308215115    2.37488945346410   -6.65838087296019
O          -2.29316395326890    2.56395613811041   -7.68286421907508
C          -1.86792918231495    3.09414417337235   -5.36228769534958
C          -2.53722661337133    4.27405101217082   -5.35088537039636
C          -2.49520248754385    5.33540508803208   -4.40873150077788
S          -1.21967305018671    5.53639786766422   -3.22683900373005
C          -1.85599790631666    7.04194051476192   -2.69001982375991
C          -3.03602961843998    7.36919216699016   -3.38312874300889
C          -3.35516278198851    6.40262781024452   -4.36572128298401
C          -3.90060947934042    8.47020585806509   -3.03089599817632
O          -3.78081170735993    9.25411024634358   -2.11476986228491
C          -5.14848441269566    8.64492622310030   -3.94900433799057
F          -4.80276741251474    8.79486163986520   -5.24290957027600
F          -5.99719994656486    7.60802869773509   -3.89303443125434
F          -5.83543586481650    9.73380540955219   -3.60784785614830
C          -1.14144882609922    7.77633350251038   -1.68306152059661
C          -1.04424775019475    9.14811305202437   -1.75181151260847
C          -0.34400621129020    9.85472039410047   -0.75914461026645
C          -0.15923108530196   11.21826604086005   -0.56495090442119
C          -0.73140133972341   12.35092494271922   -1.34459116832458
C          -0.16518370014285   12.39549484977191   -2.77353689533056
N           1.27379340545772   12.59321953733152   -2.71711292766869
C          -2.27296774310935   12.29388754802048   -1.34553373570736
N          -2.74862812472860   12.47720344221148    0.01393468924013
C           0.65616742099093   11.35620652401496    0.61809084904507
C           1.17293983096976   12.44727334596601    1.21024881187119
C           2.04151141555566   12.34439797164243    2.41634423568381
C           2.19758169092024   10.95322899521083    2.95359867083842
C           1.67992500574215    9.87179642556297    2.34250420896507
C           0.92729188957302   10.01347149834826    1.15203122053892
C           0.31605773285726    9.10963059681909    0.30816209802889
C           0.23964894118492    7.69661097728081    0.32094933255518
C          -0.46499067929419    7.05508661151273   -0.64312227811716
C           1.51832084497429   13.25183582642991    3.49469943729029
C           2.24788818649884   14.20645414714041    4.07894931217054
C           1.77673787218990   15.09216558962968    5.10077152782782
S           0.15191237922988   15.09935532818508    5.68209049871502
C           0.46989120816883   16.44015735666458    6.76552213234161
C           1.81113238079047   16.81082500919384    6.68395780067610
C           2.52206963249297   16.06229577167306    5.73769984909912
C           2.60675953897254   17.77875263899753    7.48831646265532
O           3.57120979176640   18.35338888281396    7.04894802899556
C           2.53241337607040   17.55972668675102    9.03057539603499
F           2.80148900314329   18.65813802278374    9.73170497399222
F           1.36393413099953   17.07979481526991    9.49184533207327
F           3.45601751603381   16.63831754176143    9.36391089675179
C          -0.66319235875186   16.92249916729710    7.45591227128904
C          -0.84436708009201   18.11646615768261    8.09480270989802
C          -2.06260337687772   18.54855127830787    8.76403068265937
C          -3.14017846142819   17.77078836907301    9.09150856881806
C          -4.28939026418483   18.25857202898808    9.75071850645340
N          -5.25134729736534   18.59460117209751   10.27843375887422
C          -3.26243113308624   16.38789822148047    8.83642986411641
N          -3.43483601751528   15.26535184632309    8.66890515916694
C          -1.91350594274326   19.96616330583279    9.07179175093615
C          -0.62261424288914   20.38850391579868    8.63826731232924
C           0.08891808179055   19.24814993322569    8.06455086944610
O           1.23367900110742   19.28308183340003    7.62417090673151
C          -0.17950320423964   21.67054420797886    8.80532218634947
C          -1.02963877254394   22.61143619588503    9.42573025013952
C          -2.32584033016960   22.20252553032385    9.85667851786149
C          -2.75294653199562   20.86618660630565    9.67193806998760
C          -3.16573240631665   23.15178434334096   10.47229770997869
C          -2.74705956732841   24.44223288580461   10.65667258181666
C          -1.47080109299785   24.84272789502925   10.23424876954801
C          -0.62961878315822   23.94661695250057    9.63170169131575
H          -0.18586068269518    0.64052931891894   -8.35421463967318
H           1.18002278657753    0.78108689803677   -3.55766158428068
H           2.95030251954343   -0.81398709788138   -4.02176375059816
H           4.17705590414096   -2.25172574519401   -5.60045173412960
H           3.51775671905431   -2.33845867260107   -7.97210385439011
H           1.62461146650657   -0.98792175634112   -8.78409901751797
H          -3.11908800617810    4.48228097869189   -6.24412711373062
H          -4.21038274469622    6.45068666283792   -5.01423766082241
H          -1.47177403534990    9.67311545506115   -2.58921564101286
H          -0.45530220357961   13.28551243501196   -0.84603286316399
H          -0.69396226454279   13.18482429490475   -3.33497118428705
H          -0.34518061243949   11.44531621537944   -3.27919616928993
H           1.48762008440513   13.50665291071117   -2.32999470678522
H           1.67425109071351   12.55086107333686   -3.64738315348785
H          -2.61412685816266   11.35091974758527   -1.79540500696188
H          -2.66021310222351   13.12136300753968   -1.94723110174715
H          -2.47254005267863   11.68184744372263    0.58194743972708
H          -3.76122552168588   12.52547786356331    0.02488730682154
H           0.98878420634578   13.44522713147199    0.83826974209996
H           3.04047931144985   12.70974154004230    2.12921962452469
H           2.76950859623850   10.86519894271522    3.86436076057912
H           1.83486231838508    8.88393163874989    2.75105472090919
H           0.73933371909539    7.14198943822900    1.10082600709611
H          -0.54911383111698    5.97798610434511   -0.63955443430287
H           0.49394781659901   13.08022386485914    3.79598992464730
H           3.27779328233692   14.36498267658170    3.78452153697617
H           3.56571322120770   16.23454981920234    5.54297933951439
H          -1.51522371298005   16.25605066441243    7.40265553553147
H           0.80737911239990   21.95572469128270    8.47303448272485
H          -3.73817482380430   20.59038117957922   10.01256417171984
H          -4.14700709357679   22.83965323472895   10.79801607013185
H          -3.39813235794358   25.16131555122517   11.13043893442238
H          -1.15719809989079   25.86412091414400   10.38856458259285
H           0.35460837918715   24.24753541656127    9.30456014205206
