111
 SCF done       -204.916280691459          0.000527318704
C           5.22321944492050    2.06849761506678    2.32569475700740
C           4.59392203965520    1.15014200035354    1.52724846149911
C           4.97471517686347   -0.20557412187165    1.43280262961922
N           5.23518659771977   -1.31691629561941    1.31318295153092
C           3.47127646932606    1.41417136750812    0.71449870499630
N           2.55483563700836    1.55686467831805    0.03672404843752
C           6.35028604333228    1.80086354981636    3.20817871892355
C           6.62938614629040    2.97809240079473    3.95989577702797
C           7.64391768889426    3.02858632259182    4.87219371469216
C           8.44259175356979    1.88186936296927    5.07786535897561
C           8.17335006363753    0.70114749847365    4.32633110985999
C           7.11570335036212    0.67856105002567    3.38912074488102
C           8.98052232941366   -0.43566848118233    4.53584186355207
C          10.00386865404716   -0.40950656698049    5.44377573712114
C          10.26750208083916    0.75319453953039    6.18345541375988
C           9.50310131839210    1.87429929729709    6.00504200809384
C           5.68261411632413    4.04208305683198    3.58667423934564
O           5.62629916023018    5.15789059455606    4.05516729475942
C           4.85409368924847    3.46700061628920    2.49015978741559
C           4.05165164721789    4.17247653773385    1.65015225629105
C           3.63127214336826    5.52839763218379    1.78043364957470
C           3.30524248463624    6.21030568688494    2.91864158527463
C           2.74562050000805    7.49100766611184    2.54384902930821
C           2.32688252262913    8.47346425734687    3.45204614614629
N           1.96824888501860    9.27857172261806    4.18697092038203
C           2.68649803455482    7.57545552226618    1.17770492395487
C           3.25629144711518    6.37591626782197    0.62981517859939
C           3.54371060618533    6.12954157636288   -0.68829879031902
C           3.00212088829457    6.84429641399606   -1.87463698336518
C           3.72648808133773    6.43173993432278   -2.95943317564032
C           4.69931060254743    5.46224819882956   -2.52372052366396
C           4.56052963095044    5.24929525025759   -1.17377240792736
C           5.64008196286112    4.85138356450323   -3.36524158800592
N           6.41068152518529    4.35953274117355   -4.05890194721039
C           1.85957669160550    7.68913271088134   -1.86721137693072
C           1.55160390521645    8.54001234300415   -2.88063097331202
C           0.42696669374907    9.39763639339449   -2.92123943430814
S           0.30464895651659   10.52346248579970   -4.26562316515901
C          -1.16280088539427   11.15694487519115   -3.63241441739364
C          -1.53153101849751   10.50858768890972   -2.44171699262812
C          -0.63664571439385    9.52314753328396   -2.04044180310955
S          -3.01856585629129   11.13132225023074   -1.77362668487098
C          -3.13287337402584   12.26758333636181   -3.08801118774445
C          -4.04095992830096   13.27128081769558   -3.41843268277705
C          -3.69582315162790   13.92013303452182   -4.58779855321578
S          -2.19613385193489   13.29372773972008   -5.27396689545236
C          -2.06491144771494   12.15484937661337   -3.99440618398966
C          -4.31567442899858   15.05983977879120   -5.17090818196146
C          -5.02637940062355   16.03069668470968   -4.52442177842976
C          -5.20257029394485   17.13853200041347   -5.43078136909088
C          -5.92653829106110   18.29808528790485   -5.11901682105906
N          -6.52603859780325   19.23871606600477   -4.84986834572920
C          -4.55943474873878   16.87271522944994   -6.61876936509536
C          -4.06163125157413   15.53910945200075   -6.55229459271635
C          -3.65238423081266   14.74906137116781   -7.60053509799119
C          -3.02358711246884   15.16632011885734   -8.86926980593107
C          -2.91466553863155   14.04418079931493   -9.65463792310535
C          -3.47755906935070   12.92556977271729   -8.94584266938720
C          -3.87249577235780   13.33616220566713   -7.69528284596005
C          -3.59402478143707   11.62639426648155   -9.45956155713614
N          -3.68524395209410   10.55999096580198   -9.87361720336269
C          -2.45464283168197   16.44472069010997   -9.10026263477777
C          -1.77589114601999   16.79327736537332  -10.22899379066597
C          -1.16776623802494   18.05858250100575  -10.36595250703398
C          -0.38763687349442   18.43608188213189  -11.42447349885135
C           0.28825080923197   19.70786045104416  -11.59671043574815
C           0.18185154005887   20.81379730966263  -10.79138757264807
C           0.86155756167750   22.02826037065673  -11.02197572190688
N           1.38505102822646   23.04218168974594  -11.14864975957361
C          -0.61675194283503   20.91323841181671   -9.63356753191320
N          -1.24165754361807   21.07253695163119   -8.68285646734324
C           1.10329217763063   19.61866145257685  -12.80368318683253
C           0.90527638560417   18.33771069744580  -13.39380790628744
C          -0.03972581727083   17.56069125514874  -12.57545871076694
O          -0.43522969424498   16.43510685969865  -12.80015708156915
C           1.54646644876723   17.96203112048930  -14.53882093045875
C           2.43773293468933   18.86649233947823  -15.15779477919677
C           2.64446633277168   20.14919494884151  -14.57289868980837
C           1.96282024619628   20.51114557778343  -13.38820571596780
C           3.54004365985176   21.04241844018277  -15.19534544848974
C           4.20066031543047   20.68723219362478  -16.33989202742309
C           3.99606460034499   19.42405163184204  -16.91488507139543
C           3.13287917706610   18.53314067271450  -16.33669567837800
H           7.83446089231698    3.93380396748629    5.42949201508404
H           6.94186437896801   -0.22748358786873    2.83063829926293
H           8.77312198670394   -1.32861230686003    3.96469190831965
H          10.61645684934387   -1.28517849545652    5.59707608764268
H          11.07956005309426    0.75625227094289    6.89495821366174
H           9.70135492838248    2.77245007184492    6.57141903509704
H           3.68530659854580    3.67237431823731    0.76192521701777
H           3.39236950017582    5.86635906554610    3.93035653557402
H           2.39381053032433    8.44214941118235    0.61660031991397
H           3.58796646042751    6.71743939665607   -3.98457379050163
H           5.19842082470572    4.63201527259567   -0.57147608697939
H           1.20734258618341    7.63126338290583   -1.00873899960952
H           2.22436901285916    8.61727845526768   -3.72355193851729
H          -0.75686629216464    8.92478034508019   -1.15696750088016
H          -4.92196101486687   13.50593220207109   -2.85088392226301
H          -5.35506876438559   16.02697618236366   -3.50291438900212
H          -4.58122152738146   17.49444463337089   -7.49282602593847
H          -2.47169583802289   13.97405994807743  -10.62972615963075
H          -4.39446178291896   12.73844240020036   -6.97230839815667
H          -2.52857463225654   17.17013233843684   -8.30025889840466
H          -1.66911036360765   16.09315288219165  -11.04252515706162
H          -1.31595154884384   18.75678670808057   -9.55177165771980
H           1.37786011864102   16.98412603981472  -14.96502303268205
H           2.14454035883221   21.48856091025086  -12.97063198201578
H           3.69422701053913   22.01393181017272  -14.74912819691906
H           4.88520698248239   21.37815096106107  -16.80864700720867
H           4.52594562218943   19.16028873684936  -17.81793113116807
H           2.97134968183117   17.55894183016189  -16.77456190928655
