114
 SCF done       -206.988270563516          0.000651849031
C          -2.25169053459376    4.14365695117298   -0.72281178901981
C          -2.03887377551454    5.42601228231610   -0.29370112934148
C          -2.54874228333979    5.94101107814189    0.91722693238612
N          -2.94901666361544    6.40967292403580    1.88517361784248
C          -1.22048489531138    6.36375805764525   -0.95351531106202
N          -0.52769247673601    7.16164165302861   -1.40378219560698
C          -2.89675208086945    3.08686781033809    0.04662278010295
C          -2.53937409761671    1.82557986059919   -0.51674434364368
C          -2.97194395636937    0.64890972134562    0.02386596192156
C          -3.80375194618629    0.67929191751771    1.16528072617519
C          -4.17982679825680    1.93625713604791    1.72262838796230
C          -3.71255208823315    3.13899543330528    1.14597584173484
C          -5.01764497484634    1.95247968710705    2.85653328629354
C          -5.46008522114982    0.78509026186705    3.41644042694749
C          -5.08744945771990   -0.45159177418986    2.86833808388666
C          -4.27690169930750   -0.50342856951744    1.76692011181688
C          -1.70130424168723    2.04252484864072   -1.70686188030193
O          -1.16790006019872    1.21940444948253   -2.41373274371393
C          -1.68470251177238    3.52218858158869   -1.90779682656399
C          -1.27425713117059    4.03645383633509   -3.08826099056915
C          -1.52939831611472    5.35726347170387   -3.58505920795165
C          -2.72204605301145    6.01056408109112   -3.46543805182149
C          -2.63432441732757    7.27936381397221   -4.15447471953049
C          -3.69789610540595    8.18171141182038   -4.28429378709944
N          -4.57449488133730    8.91700569124540   -4.37346072420089
C          -1.36347282612996    7.42892985948427   -4.63350623815799
C          -0.59948425555160    6.25696876520927   -4.28048094051630
C           0.74776654006095    6.08083192632469   -4.48011652889525
C           1.70327883600761    7.13774992291981   -4.92412495094443
C           2.82916588009021    6.50299629686080   -5.37289427887397
C           2.68427482266846    5.09413095214859   -5.12725468856126
C           1.46425922382279    4.85047163626070   -4.53606414518343
C           3.65794340183537    4.13484966701657   -5.44030140619000
N           4.46346210214736    3.36095023920291   -5.70352119138507
C           1.58794534065874    8.53879118557642   -4.74026163111486
C           0.81258815924046    9.14604724093394   -3.80137072086959
C           0.73183246377916   10.55019713549457   -3.61866831442553
S          -0.27929579703588   11.17807158551989   -2.33250372406645
C           0.15414921177991   12.80908543807908   -2.73950395569154
C           1.04650641747760   12.84374723589110   -3.83540314326404
C           1.35080383622200   11.56322331757538   -4.32065932883327
C           1.51156807354418   14.10633762052477   -4.26861216323379
C           1.08738428295419   15.24937611831938   -3.57690729934868
S           1.76653001526881   16.69001808427564   -4.27600665210227
C           2.59520721417030   15.75387593056711   -5.46346249486897
C           2.38024038419542   14.42333210060445   -5.34610242091017
C           0.18664403151402   15.20205347591084   -2.49592763629325
C          -0.28013565660220   13.95560646042351   -2.08996354705908
C          -0.19796029946015   16.41033902379137   -1.79278026844770
C           0.63438476071291   17.39318031260669   -1.36771094393073
C          -0.13330336935885   18.34290781710044   -0.57671507789642
C           0.40321134516822   19.48420716365988    0.03121212546920
N           0.84690418578460   20.40903971372587    0.54680436532672
C          -1.42665304531675   17.91673099515793   -0.49922673513295
C          -1.54510096849847   16.70121140262355   -1.26560891502372
C          -2.70477928996836   16.03877274194260   -1.57654319529747
C          -4.01175628762753   16.13587357922659   -0.88519312527388
C          -4.95178257273394   15.58352797961148   -1.71376722406289
C          -4.29240585191943   15.09181280167749   -2.89802158038818
C          -2.94114080659016   15.30783942427813   -2.78753455728526
C          -4.95176792427511   14.51747455233683   -3.99512333922286
N          -5.49684702574180   14.06715862633238   -4.89851133367785
C          -4.23264345929665   16.55721334156063    0.45307834223905
C          -3.26018783372167   16.64316717604851    1.40022621182432
C          -3.48815712282851   17.16189385616276    2.69469003366786
C          -2.48805576443431   17.44458281424446    3.58224396661367
C          -2.63457635094452   18.00283448126504    4.91453539087879
C          -3.80889662919951   18.25110141242669    5.57774364613960
C          -3.88419536209484   18.78674271928105    6.88095946514655
N          -4.01964508163649   19.21867991980943    7.93584880133514
C          -5.10389864839151   18.00689224811151    5.07562322618842
N          -6.18915525139990   17.83479973143850    4.74078668607915
C          -1.29775320706823   18.24353247265628    5.44553634166490
C          -0.34024158427893   17.82451327833713    4.47799545766696
C          -1.03461634028574   17.29696423231556    3.29542500173500
O          -0.51418187450393   16.84666658654754    2.29323239759491
C           1.00321951755999   17.93781229701333    4.69317241904505
C           1.46119929211136   18.48093321680759    5.91368744125925
C           0.51066511766864   18.89904934818741    6.88957679096328
C          -0.87447280660143   18.77394558241649    6.63573371730915
C           0.97843683020633   19.43787372469697    8.10534940336160
C           2.31986475505981   19.55824061770638    8.34740317727093
C           3.25466085240611   19.14711505882494    7.38544716388465
C           2.83452106107670   18.62018577817067    6.19433484798744
H          -2.68313157950734   -0.29458339110794   -0.41488228245270
H          -4.02099911439818    4.07640445620627    1.58202012219862
H          -5.29933045980038    2.90669890014568    3.27682384199352
H          -6.09981196886755    0.80793977776069    4.28578641991314
H          -5.44625969613295   -1.36279265608420    3.32285741560535
H          -3.98693355052979   -1.45239206986350    1.34023115670347
H          -0.80535807727790    3.32818291810904   -3.76283667819077
H          -3.61570585551519    5.63644377169811   -2.99897330674153
H          -1.00747245786149    8.24392056244034   -5.23196990703724
H           3.71776179718973    6.96212171278197   -5.76359242128417
H           1.09626443028894    3.88062599782081   -4.26934583964606
H           2.26453285178543    9.13773879834111   -5.33699130952038
H           0.24071356839869    8.54518809427279   -3.10761133601131
H           2.01265807983243   11.38848218830116   -5.14888815681115
H           3.20445233426984   16.26185579052323   -6.18507171042073
H           2.81462709177357   13.68901825323338   -5.99941017410126
H          -0.94936341484550   13.87667006145779   -1.24797729713605
H           1.69296577060877   17.46744572506342   -1.52981266383428
H          -2.24118161899160   18.44524133083775   -0.04418495257484
H          -6.00202579562968   15.47638779258998   -1.51598890422574
H          -2.20849389441050   15.10521505155312   -3.54454691502967
H          -5.25859893374137   16.77969403850521    0.72329159281321
H          -2.25362641997325   16.33083770613239    1.16752009553248
H          -4.51327876768741   17.38604007202705    2.96072987322125
H           1.70683062910467   17.61781006125542    3.93910095928515
H          -1.56658992090921   19.10537282301937    7.39331088214891
H           0.25510773905819   19.75369200567715    8.84275759272722
H           2.66819038242956   19.97176531741485    9.28194609976573
H           4.30921592733672   19.25041323851557    7.59291349295268
H           3.54910326248346   18.30275873110741    5.44915955741885
