140
 SCF done       -233.156689698212          0.000841320590
C           2.27202790868719   11.27019730542243  -12.14851414355791
C           1.51881385009328   11.90413353110955  -13.10528546542096
C           1.53996302106321   11.56918872166203  -14.47400240600499
N           1.48661419973458   11.31911085447262  -15.59332873813623
C           0.70409598409993   13.02500075034074  -12.84887636319221
N           0.05089990260965   13.95800326365694  -12.70671268611922
C           3.33782172390871   10.30985568763029  -12.41890693605059
C           4.16951150272690   10.22027065858119  -11.26490849193781
C           5.28409389857954    9.43321564355936  -11.24274324375157
C           5.61859492889066    8.67913692267192  -12.39056165773903
C           4.78138493153681    8.75030255742404  -13.54097831364827
C           3.63507664479304    9.57857419474886  -13.53675335940858
C           5.12443858227054    7.99208539774344  -14.67848610097146
C           6.24341723419577    7.20448964311004  -14.68362577363518
C           7.06810271198521    7.13613063152345  -13.55106367483155
C           6.76185301572343    7.85711024646040  -12.42877738225444
C           3.61681605351209   11.07830363259012  -10.20149752863240
O           4.07241430396705   11.28907868376749   -9.10047863258493
C           2.33292856449088   11.60735503155907  -10.74683306652165
C           1.47418859179290   12.24516954434598   -9.90387843603267
C           0.09358593687755   12.52799200672568  -10.03490582506352
S          -0.54048866380184   13.89667795050162   -9.15064898757828
C          -2.11681167104541   13.57799194944242   -9.71498779472213
C          -2.18348550071346   12.46096270812447  -10.49969769160746
C          -0.92493118065867   11.84979006656884  -10.68884370249227
C          -0.79478008313492   10.56351342081567  -11.42924071992084
C          -2.11984337458339    9.80476055931102  -11.39650092799876
C          -3.22926699638223   10.69269410929051  -11.94875960929092
C          -3.46853316963747   11.91698065389824  -11.04986827747221
C          -4.38920569750724   11.55936024551631   -9.89036915863299
O          -5.54306125894363   11.88619881132925   -9.80964366288529
O          -3.74308027306723   10.83683494576264   -8.96210267513921
C          -4.40631803900530   10.51297649479246   -7.79943613981123
C          -3.83150262151707    9.71665606164780   -6.89880454061164
C          -4.38837160409950    9.35842775582936   -5.60862008781468
C          -5.42444325153839   10.04958846990539   -5.03276979006163
C          -5.88436708373614    9.69938948053638   -3.74501277003629
C          -6.86259734888669   10.26789367165768   -2.94250867771706
C          -7.71936207558980   11.43334523451532   -3.30901537817863
C          -9.15182481045347   11.01336320806545   -3.70177380246746
N          -9.82818336941480   10.33600756061294   -2.60735051707914
C          -7.77845077296922   12.52013524312875   -2.22234658828498
N          -8.09924931525017   13.79685608119214   -2.84071925329774
C          -6.86120221651285    9.52682614343296   -1.70257308190430
C          -7.57820573184509    9.67321900703004   -0.57222573852287
C          -7.34466654729216    8.80774936121519    0.61903754838241
C          -6.35601422203159    7.70909012486808    0.41200973657968
C          -5.64581131284861    7.57672890144241   -0.72384276920959
C          -5.84396526173655    8.46988217054158   -1.80326721995059
C          -5.25583336645656    8.58594897464805   -3.04710773922802
C          -4.20690364119426    7.87652245282587   -3.67598812229304
C          -3.78723625513521    8.26147761118970   -4.90747495914447
C          -8.67412001161536    8.36655315847424    1.17457770380358
C          -9.10833937610505    7.10910769045643    1.24232930272369
C         -10.37660557873505    6.73324872777147    1.80506026322705
S         -11.50048249434815    7.94332023541302    2.37075333656679
C         -12.61420989015912    6.73749527405074    2.85873840154940
C         -12.16102899156635    5.47868198714984    2.60101106916456
C         -10.87508651417755    5.46808079536310    2.00373126550279
C         -10.19647409354180    4.18691745179486    1.63393933399041
C         -10.71736161288493    3.03968424410445    2.49729763076136
C         -12.23938667231476    2.96810068946808    2.43647596559469
C         -12.91087484474603    4.23385270625214    2.98792097937057
C         -13.00958674019421    4.26908136767536    4.50212266484152
O         -14.03065760643554    4.36412599599631    5.12034850175727
O         -11.78146291174307    4.20136960231476    5.07834019670652
C         -11.57506418318566    4.50616068524077    6.38571732380073
C         -12.24137073734587    5.42090919627436    7.10793181143950
C         -11.86775299918635    5.69026013934509    8.45538731090549
C         -12.38189110273806    6.69426088563500    9.21459105938300
C         -12.05925583489673    6.99304177572602   10.60145965034729
C         -11.10454339581101    6.38460732418003   11.37427780627027
C         -10.83392622766508    6.72838099589644   12.71577397448064
N         -10.56157275152276    6.95424361416218   13.80812845182271
C         -10.24132405974501    5.35115351776188   10.95511040258021
N          -9.49593338836702    4.51706784420329   10.69343073572644
C         -12.92131616789389    8.08709437275026   11.03144930522600
C         -13.72509632097054    8.49788283960572    9.92982781614914
C         -13.40318336943510    7.67505797479308    8.75138186062793
O         -13.86425984012810    7.79535353602374    7.63700573524894
C         -14.62840264525746    9.51592719216769   10.03436056533404
C         -14.77595059160945   10.18271426354890   11.27101772522619
C         -13.97895805183903    9.77592508836208   12.37985932764125
C         -13.05088987268133    8.71912032953443   12.24097120201256
C         -14.13391169711172   10.44764304519746   13.60988553004198
C         -15.03134936748451   11.47220239111198   13.73977069929519
C         -15.81531564121667   11.87196130334385   12.64710436511358
C         -15.69035174182630   11.24093499553532   11.43914121226510
H           5.90593008068127    9.38732144070687  -10.36106299872137
H           3.01680089963583    9.60984156731970  -14.42029958744523
H           4.48819235317680    8.05098274253264  -15.54942327440253
H           6.49984007481880    6.63059537788591  -15.56151996014242
H           7.94738107552701    6.50982078865585  -13.57224892217474
H           7.39333443600944    7.80854204059705  -11.55369726494771
H           1.91888180909147   12.54190237095662   -8.95731395032841
H          -2.92355074654048   14.23113836075023   -9.44431344527642
H           0.01580297517303    9.96344949919625  -11.00662787204818
H          -0.53757646592178   10.76594002778831  -12.47635060255865
H          -2.35278261717585    9.51483885603641  -10.37123062452832
H          -2.03695488990094    8.89881171442884  -11.99896509031032
H          -4.15989496200642   10.13017777348629  -12.04364665704551
H          -2.94582888852745   11.04218562972208  -12.94381393723525
H          -3.99005864853959   12.69077883055765  -11.62240965672398
H          -5.38840223451090   10.95414673514169   -7.70425352504540
H          -2.86086672767762    9.30076897094642   -7.13571560207111
H          -5.87315115625970   10.88616712269015   -5.54579141239928
H          -7.28312713717539   11.89582817514639   -4.20096375334506
H          -9.09698969505520   10.40282819367146   -4.61808405425598
H          -9.70387265953702   11.92862744129024   -3.92591788904578
H          -9.45570528324546    9.39895273333766   -2.49286730779220
H         -10.81841669187736   10.25352430216913   -2.80695611121772
H          -6.82506731731058   12.53194337677244   -1.66697510951688
H          -8.58570309410678   12.28609648632636   -1.52753289995610
H          -7.33443476974590   14.10531797635331   -3.43236317411628
H          -8.24765650041489   14.50689929661066   -2.13245989943604
H          -8.35491241129207   10.41704979891814   -0.48504889053934
H          -6.91633050371147    9.47937813761938    1.38681454547636
H          -6.20189090119825    7.04527506249951    1.24940045385580
H          -4.91572277385661    6.78652265297950   -0.82775387111697
H          -3.74093640109821    7.04719280213712   -3.16381672976574
H          -2.97718458827014    7.73657285708837   -5.39340472012256
H          -9.31086928015916    9.16907223711391    1.52338987345095
H          -8.49489774219211    6.29755555635185    0.87698486689998
H         -13.54254798737161    7.02344545871629    3.31265875168933
H          -9.11585493139004    4.28065678809389    1.75322222227549
H         -10.39513064944049    3.97011182687256    0.57870899680669
H         -10.39540944941000    3.18624619140581    3.52794747520218
H         -10.29753038581431    2.09693854155652    2.14166694172996
H         -12.60007717637735    2.10001867787848    2.99128037626960
H         -12.54602058916989    2.84999182898725    1.39469995846130
H         -13.94221971535691    4.28801668333020    2.62354027697645
H         -10.72273067247085    3.96502235996887    6.78063118258093
H         -13.06140186801328    5.97988431015415    6.68308699370657
H         -11.12180342549651    5.03332102993317    8.88338840268497
H         -15.22335911241378    9.80896933359531    9.18203380916263
H         -12.46497784524536    8.43492644118505   13.10042661531518
H         -13.52768553374667   10.13648874226330   14.44800139279432
H         -15.14224419596757   11.98077120092046   14.68574730226246
H         -16.51863664740886   12.68238331014750   12.76745519928000
H         -16.29116788795988   11.54440279752733   10.59426397405857
