119
 SCF done       -219.098731247092          0.000512576272
C           4.02935090710855    1.22082434595069   -5.26345588738336
C           3.56259426398374    1.52169412429626   -6.51541917598089
C           4.01887980613044    0.89502084161516   -7.69324308096706
N           4.37203991836143    0.42379597713815   -8.67815744865726
C           2.51089669093103    2.42923405076842   -6.75324352155147
N           1.62368943933091    3.12176428734950   -6.97996014996633
C           4.92155012056840    0.11761398025485   -4.92814962343409
C           4.79898824650598   -0.15980616015063   -3.53392911465571
C           5.49169538365777   -1.17639013997360   -2.94178629181440
C           6.36107813609880   -1.96688127169789   -3.72638926896130
C           6.50205995471429   -1.68281164055484   -5.11605835551869
C           5.76657438083559   -0.62891623897324   -5.70493735680240
C           7.37981492411962   -2.47362972999419   -5.88509335091981
C           8.08221228089328   -3.49868533210070   -5.31216378126443
C           7.94080085363068   -3.77928799707777   -3.94482503210194
C           7.09855758161074   -3.02996254980215   -3.16893453416965
C           3.86789048793342    0.80427692356765   -2.92438172162908
O           3.47654236246882    0.85503982752215   -1.78092306118280
C           3.54096746792111    1.77054387029913   -4.01319207063668
C           2.97653577343344    2.96362653659118   -3.70509123417395
C           2.93026677794602    4.14496073578663   -4.50343005697911
C           3.90943970596696    4.60359973784260   -5.34098449441084
C           3.54074945998638    5.92008134846471   -5.80017890002768
C           4.29594228739276    6.70308095636045   -6.68078613945506
N           4.92245411493580    7.36330018470179   -7.38083332659272
C           2.34733611216753    6.27933550931434   -5.21860171123720
C           1.90853678543258    5.20072711023669   -4.39412132884338
C           0.71587504399159    5.08669606644560   -3.70385928808681
C          -0.18016033712562    6.18229343601255   -3.26258491618268
C          -1.31923529729109    5.58279094744708   -2.72754216572997
C          -1.16376660873996    4.17750514527545   -2.79824432390332
C           0.07670175990381    3.87521843568663   -3.35336379482330
C          -2.11825552186344    3.24203827794789   -2.36826220772292
N          -2.89982236796392    2.48265130971590   -2.01046899129206
C           0.16096171228594    7.53230144226895   -3.25864362703587
C          -0.64130150628403    8.57481534618675   -2.83164389227459
C          -0.23929399694437    9.89976081570177   -2.88064552824744
S           1.29282357209377   10.38109383697181   -3.56217174380668
C           1.04038308076218   12.06901549157046   -3.19366846045146
C          -0.24955546213269   12.25599973189823   -2.60295309730822
C          -0.96239461621806   11.04343039359116   -2.43551875210435
C          -2.24666474757716   11.08110361801909   -1.89752998438541
C          -2.85314537736966   12.28273053088181   -1.58245384196205
C          -4.24860541966126   12.18094077432188   -1.02641901918388
O          -4.76401046348136   11.10681504440190   -0.85750038856595
O          -4.88046779133886   13.30876485520088   -0.73054621479896
C          -2.16180643679872   13.50284730171687   -1.81194729153012
O          -2.78315332405784   14.66625712459291   -1.56766142060624
C          -0.85704266312013   13.46736679144654   -2.28959801446881
C           1.95875609047185   13.05265787918329   -3.49647731813482
C           3.06778548343288   12.86889613559969   -4.31548251046119
C           3.94481934882073   13.82338118120265   -4.80369516650791
C           5.10934246295813   13.47452794909873   -5.51291148273613
C           5.88216889102031   14.62255548774867   -5.69906059572406
C           7.10130829158509   14.68765625942092   -6.38933351570139
N           8.09613618662349   14.74543462456191   -6.95802143798585
C           5.22935275871873   15.72305112382990   -5.09979275365320
C           4.01065523212997   15.29651316435894   -4.58427620006348
C           3.02803410439662   16.12380999820599   -4.01401526785685
C           3.27057559880092   17.30514058078715   -3.16740090884562
C           2.03458880534410   17.77345369141616   -2.75042652164852
C           1.02890340668941   16.95452092110004   -3.32470956590015
C           1.63778453534451   15.96458093507547   -4.10824707220379
C          -0.31888097014331   16.92288631997578   -2.99344456783259
N          -1.39929174465738   16.71869362781229   -2.64507984383667
C           4.53677058042192   17.74285105949190   -2.72525728608819
C           4.75760631518670   18.87273534258808   -1.98660164830776
C           6.05058214441821   19.23317667646598   -1.57015788077634
C           6.35343739422954   20.33716060063495   -0.81389622487431
C           7.66683027764656   20.74281718622352   -0.35981639777241
C           8.85688854406804   20.09368198276590   -0.58328796575563
C          10.10637947921459   20.54911179780324   -0.11396630270741
N          11.15461579761199   20.86133352187327    0.23578682049711
C           9.01585870565808   18.88733569491015   -1.29488454549481
N           9.22734985693824   17.90504922887004   -1.85235997808129
C           7.51344881413888   21.97973590919404    0.40009787502948
C           6.13339355329945   22.33027967461320    0.42496053619801
C           5.35921053523850   21.32482131222024   -0.32209823368281
O           4.15590093622123   21.31572292459467   -0.48876274821269
C           5.68224477771298   23.44444635096261    1.07146085319140
C           6.60869320487727   24.27701560124249    1.73841460195959
C           7.99115059858445   23.93394301851297    1.71899840244413
C           8.42850301577222   22.77364660968544    1.03908247065789
C           8.90732797092007   24.76931436549026    2.38947391285043
C           8.48023132318981   25.89012264055949    3.04840918170162
C           7.11882339402246   26.22724346179501    3.06637333559706
C           6.20284385186985   25.43791203712952    2.42502497948103
H           5.37804877349496   -1.37561672278197   -1.88654165152939
H           5.89733216896588   -0.42984745550260   -6.75731555518993
H           7.48286863421317   -2.25600563683670   -6.93798780315811
H           8.75061647831627   -4.09982982479095   -5.91000684255077
H           8.50273682213821   -4.59183216658515   -3.50931336050127
H           6.98570657153326   -3.24120643425888   -2.11565749099101
H           2.59773362024901    3.04782301059660   -2.69039637600200
H           4.83231596924344    4.11272028121888   -5.59009163951372
H           1.78823683947596    7.16226600006854   -5.46032449647928
H          -2.16922140965276    6.07903535205867   -2.29915795235065
H           0.43194163884620    2.88785425223956   -3.57778439714316
H           1.15480123014733    7.79307544853129   -3.59633647596243
H          -1.62725531936056    8.37133368678169   -2.44144366706400
H          -2.81740797257296   10.18085418558012   -1.72920337735619
H          -4.34334480474296   14.09872065281152   -0.92962272933125
H          -2.28056693282599   15.45733338244843   -1.89955528218127
H          -0.33193236509613   14.39705256051366   -2.43625793447532
H           1.76981219170479   14.03244406299364   -3.08621594687074
H           3.27463985653813   11.84979900245595   -4.62837868102642
H           5.37533569160453   12.48296093403075   -5.82771021245447
H           5.57417044036877   16.73802093512424   -5.15956126778564
H           1.84774681566623   18.58764683194395   -2.07736835227419
H           1.12139710447168   15.27209309570815   -4.74726565637400
H           5.39040059021745   17.12698893642500   -2.98008444731921
H           3.93763498114537   19.51850624855525   -1.71402167567842
H           6.85645406178558   18.57740607521857   -1.87487377928428
H           4.62989211889011   23.68713623399947    1.07508473731152
H           9.48191721633627   22.54387158443831    1.04402260106642
H           9.95460662223245   24.50562492333384    2.37283021891837
H           9.18979645872650   26.52325811805017    3.55966109650826
H           6.79925109762967   27.11519841835181    3.59097649971466
H           5.15310780113488   25.69240114602298    2.43552985251893
