107
 SCF done       -200.298201678941          0.000891732221
C          -1.05910903559651    0.28020338972098   -3.65401361558409
C          -1.43895388597887    0.72187200963206   -4.89188090117253
C          -2.16361296285889   -0.06231022816463   -5.81449484600973
N          -2.76503613711944   -0.65800800208615   -6.58889791292471
C          -1.06548543185515    1.97384711092251   -5.42145085014484
N          -0.73616730015719    2.95831038009283   -5.91190590720748
C          -1.17380527336666   -1.08418874852162   -3.15915755158461
C          -0.26845549555150   -1.25309345309968   -2.06838824417090
C          -0.12797006180644   -2.45466539632945   -1.43454447021397
C          -0.90393973310494   -3.55508881734919   -1.86214683251964
C          -1.82223597689173   -3.38768585341463   -2.93997910776117
C          -1.94413706316105   -2.13499400930363   -3.58200074899146
C          -2.59473614714629   -4.49249261582062   -3.35280096417093
C          -2.46551183301871   -5.70622534046016   -2.73456296956870
C          -1.56048227801831   -5.87069377875371   -1.67496461784927
C          -0.79624125996586   -4.81859665106416   -1.24821465571031
C           0.40898834055344    0.02366570927335   -1.79007448847045
O           1.27623620473873    0.26015218641435   -0.98260046282515
C          -0.25162094765383    1.01511916533456   -2.69278288130095
C          -0.13231643453557    2.34025558891100   -2.46638019523246
C          -0.97934153667272    3.36986508939237   -3.00467770766708
C          -2.33673004517811    3.34652509232541   -3.02932123341524
C          -2.81641158414202    4.61806274466953   -3.54686630408161
C          -4.17261802971612    4.91436085791573   -3.74531403590097
N          -5.28776441707241    5.13966297206052   -3.89191272038511
C          -1.74827920870271    5.42382731153630   -3.80814408517621
C          -0.54360459799853    4.69198471224274   -3.49764954701222
C           0.74332214721200    5.04904445220859   -3.78276877247689
C           1.24077766418282    6.36220620063175   -4.26086963835586
C           2.46862006647027    6.14844923750108   -4.81452087160430
C           2.82756768791742    4.75696475099465   -4.63428598023366
C           1.82285724220777    4.11569571280513   -3.96438267916262
C           4.02709325772203    4.18749358806294   -5.08680300189751
N           5.01534293269378    3.73618600625666   -5.45503909999729
C           0.64589348985135    7.64752485898736   -4.10160863749288
C          -0.24187267391824    8.01082145721752   -3.14901471320867
C          -0.79108940127057    9.31993311935608   -3.04546071495279
S          -0.41238020635791   10.57348757436655   -4.20967703459762
C          -1.44173873499381   11.71541117663977   -3.42040731662984
C          -2.02287188127862   11.13854779747975   -2.29809952484582
C          -1.66568374977816    9.79131988685493   -2.09906863903235
N          -2.84039600430660   11.83848012199561   -1.36737400187897
O          -2.83747294147453   13.05442706419775   -1.40269057583527
O          -3.47778353306202   11.17012137112437   -0.58061803599725
C          -1.58550510062237   13.03464202267938   -3.96059839554814
C          -0.56178687321714   13.80406753876755   -4.41790928624845
C          -1.08827092055175   15.10778962136762   -4.77355753928782
C          -0.31293173972823   16.14319053611143   -5.31560356247073
N           0.33434048331756   16.97700278356162   -5.76482566700267
C          -2.42880303897436   15.13562883745795   -4.51041013945042
C          -2.82684449638351   13.83332832116283   -4.04454432105285
C          -4.10875590016470   13.36858188076207   -3.92756978292124
C          -5.35143529730185   14.17451973367435   -3.84432179320585
C          -6.40431419692234   13.30613547236952   -3.91174253297543
C          -5.89080861360862   11.95979445836816   -4.03387597235351
C          -4.52224002416390   11.99454422844053   -4.00779073126162
C          -6.69183651710551   10.81502212851505   -4.16184688029677
N          -7.35172303391723    9.88321225870924   -4.26998495462450
C          -5.42065687787904   15.57461676348498   -3.59721736303179
C          -6.52015239972189   16.32733440344246   -3.86637774344840
C          -6.55298763577547   17.72004777055280   -3.62525537962598
C          -7.60295317186463   18.53427621451773   -3.94335111576943
C          -7.67967577578779   19.97298399763956   -3.76041879531128
C          -6.72464753564242   20.78533935091269   -3.20476625169992
C          -6.86329425482647   22.18178691537483   -3.05565695032211
N          -6.90827078319035   23.31863197929082   -2.90272493993137
C          -5.47368903194383   20.36555140343012   -2.70626690222134
N          -4.43663279969677   20.10585429197229   -2.28644200136764
C          -8.96487982252829   20.42067633778039   -4.28613876835804
C          -9.67880750479965   19.28855878019342   -4.77267092857066
C          -8.87205951027307   18.07494181324696   -4.57269640798490
O          -9.18808473412104   16.94055583900402   -4.86601287227067
C         -10.91759646282279   19.40076070439177   -5.33545450980619
C         -11.51153091639432   20.67754560699731   -5.44399178749973
C         -10.80512947438852   21.81640205600254   -4.95960702285298
C          -9.52499986018523   21.66788601680295   -4.37823168356824
C         -11.40522837044332   23.08682099292129   -5.07576276039585
C         -12.64205626417057   23.22732801268244   -5.64412528625068
C         -13.33621654477611   22.10524829036588   -6.12099400175117
C         -12.78331463337192   20.85720372292111   -6.02242478181083
H           0.56877905016152   -2.56490923150779   -0.61693668592405
H          -2.65259812033571   -2.03175185952824   -4.38917756059021
H          -3.28732141517642   -4.36136579611512   -4.17106544584320
H          -3.05979666303523   -6.54699067220025   -3.05913728616328
H          -1.47202343299276   -6.83537867661971   -1.19846718255931
H          -0.09790793353802   -4.93986957371813   -0.43325515800336
H           0.61628638151404    2.64168320364366   -1.73944596225185
H          -2.97809122267197    2.54867862537684   -2.70158363418312
H          -1.78432724336922    6.38742482813769   -4.27594724055482
H           3.10802473465538    6.88142926587239   -5.27000592036389
H           1.78487607788240    3.06803176291437   -3.73803787464670
H           1.01646941731255    8.41176812152869   -4.77601942678518
H          -0.57097148741339    7.30623350464353   -2.39788117604944
H          -2.03900802105270    9.21163358815680   -1.27444070700930
H           0.47615261020804   13.53205882405358   -4.47151399794291
H          -3.09293163582273   15.94617629177922   -4.73742237444773
H          -7.44828666878409   13.54430021911149   -3.83861318132959
H          -3.87661906747098   11.14923369413128   -4.14807505194471
H          -4.55094168077471   16.04676194727395   -3.15965910116610
H          -7.38953435195554   15.87511624167644   -4.31876353936694
H          -5.66926298535963   18.15346813515564   -3.17427534945997
H         -11.43582389962825   18.52483607953905   -5.69671619139857
H          -9.01835858885329   22.55082832588906   -4.02280530188376
H         -10.86709272991441   23.94789984448223   -4.70751547217054
H         -13.09253789676453   24.20477409726795   -5.72986369547056
H         -14.31090601589654   22.23470665555992   -6.56708610881500
H         -13.31268080635958   19.98938566324268   -6.38776246566124
