111
 SCF done       -202.945880054299          0.000985761254
C           8.48035902760162    6.05343084723027   -4.76173081049145
C           9.26857128304055    5.53728152007484   -5.75383019091859
C          10.05244151958886    4.37195767552321   -5.61134385872399
N          10.71699741730414    3.43830568148940   -5.55524607160420
C           9.43218666591728    6.11951434968931   -7.02827656920833
N           9.59717544176459    6.54937438824043   -8.07990537138884
C           8.29786073411984    5.49272161542751   -3.42975515935865
C           7.55869248229435    6.41799559066520   -2.63572971040678
C           7.21988202002331    6.14793469482930   -1.34058908652525
C           7.58447688779616    4.90519948309375   -0.77970757816446
C           8.31049221436052    3.96825746968695   -1.57145930158546
C           8.66940198304737    4.28469706374789   -2.90034952014807
C           8.65193175170010    2.72318340126490   -1.00616019808707
C           8.29204230972420    2.41551633196658    0.27747688792892
C           7.57806867404448    3.33880916531088    1.05589776539850
C           7.23268209902300    4.55778834790363    0.53902252981373
C           7.21913812079442    7.59216623247736   -3.44724216038764
O           6.74321969536716    8.64410514852879   -3.07626560734560
C           7.66344335715450    7.25605403288751   -4.83479759928060
C           7.28644558523467    7.95909387125269   -5.93254542125080
C           6.30297439127369    8.99860449891869   -5.89632228443683
C           6.44097234814477   10.20928621395940   -6.50557615008872
C           5.41101347551607   11.09345930703064   -6.00305933168748
C           5.24994425864538   12.43449972934256   -6.38025104987407
N           5.09820203718849   13.52579624992686   -6.70116346195838
C           4.63138405406143   10.41372179245065   -5.10761059364452
C           5.06748041156889    9.04453824088327   -5.07284188568483
C           4.41374235511321    7.96136690680625   -4.53933261831255
C           3.42256849591033    7.98840891784197   -3.43919666678640
C           3.56096941867856    6.80612527477012   -2.75901194856546
C           4.43584056363913    5.93726430874169   -3.50120976582365
C           4.89596270982098    6.60628939163515   -4.60687030888367
C           4.79418414885647    4.63685811404782   -3.12110252117086
N           5.12781626607723    3.58945661400238   -2.79015966635334
C           2.46684984216850    8.98451106242214   -3.10376346506206
C           1.82516645005180    9.78231633193395   -3.99702126208815
C           0.87460638083216   10.76227049709336   -3.64766744829094
S           0.40138351703637   11.11084974316110   -1.99766711602551
C          -0.67235708361529   12.40899330347712   -2.45987452221648
C          -0.65724626903870   12.55295379591005   -3.84976958571588
C           0.20326675485152   11.62866955399661   -4.49609031663255
S           0.17486871318656   11.89417344880220   -6.20486895562550
C          -0.97231099941418   13.19178733879453   -5.90284793857070
N          -1.29675189126469   13.40922883744237   -4.68763400146317
C          -1.35170704820140   13.15669431985165   -1.48597277500246
C          -2.20529948762803   14.18260080212551   -1.78610346398297
C          -2.84380709701365   15.01055496100384   -0.84073291439265
C          -4.02507683671184   15.68418692996624   -1.04142606587479
C          -4.46357890221265   16.21361551635004    0.21392296186364
C          -5.62487295592540   16.98018213147207    0.38997764632363
N          -6.57658677001286   17.60781147201450    0.52176327322015
C          -3.56388980456633   15.86538796499138    1.20500640029778
C          -2.48041025556231   15.18106342290084    0.59374364875212
C          -1.24156919296432   14.94024215851056    1.14689533070625
C          -0.89918542258662   14.80762458845844    2.57577669481027
C           0.46936082031944   14.70976862431974    2.65858188339464
C           1.02175973916568   14.79829908971513    1.33374051960746
C          -0.00378669992234   14.90741464197627    0.42479796887863
C           2.38955080005154   14.75982228995146    1.03060380941458
N           3.50790724709046   14.70872822325256    0.77705105538001
C          -1.83272147698797   14.64123273166280    3.63183805519595
C          -1.50271225143059   14.64132816640373    4.95316379232078
C          -2.47126711876057   14.44884809823218    5.95996256994760
C          -2.20659315365924   14.42996996102745    7.30235537411027
C          -3.16527636602557   14.24716152058633    8.37496898775121
C          -4.50727455366724   13.98956152732370    8.24788588186727
C          -5.38673532163779   13.81977223093125    9.33755953329616
N          -6.15576033587851   13.67143409297859   10.17732142959952
C          -5.20498453043669   13.84027901014634    7.03190734500282
N          -5.84385284679529   13.69889048107960    6.08738910321864
C          -2.44659347754093   14.36728848100026    9.63945339101158
C          -1.06743333461810   14.58629186905902    9.36053874409092
C          -0.86082493048550   14.62041335998590    7.90314280929405
O           0.19767812340798   14.77134734185828    7.32736888803715
C          -0.14298394517857   14.73379257468194   10.35374760491414
C          -0.56328904356441   14.67119643422753   11.70100385150605
C          -1.94164928381285   14.45568824368842   11.98983059445314
C          -2.87552675503397   14.30418662007990   10.93901919353031
C          -2.35141045234399   14.39723201596688   13.33742036583203
C          -1.44487189838251   14.54438696601891   14.35181325106798
C          -0.08786237278891   14.75618290084669   14.06602493070157
C           0.34363061652135   14.81796399134349   12.76870578606345
H           6.66148985785100    6.86716910186192   -0.75937054181746
H           9.21454930854061    3.55365070985534   -3.47618526200630
H           9.20003467069025    2.01496387322686   -1.60946592595093
H           8.55383920463598    1.45733434218471    0.70034459410877
H           7.30112240425237    3.07856060789631    2.06655005803949
H           6.68182662019215    5.27244266704109    1.13293065916142
H           7.76643492079778    7.77958992764086   -6.88628959547114
H           7.23439197064110   10.51270419175721   -7.16312229674400
H           3.81091386842829   10.82904010618705   -4.55948281643336
H           3.03906419891996    6.52045377658521   -1.86468475775654
H           5.50080774142760    6.19007025918416   -5.38757250228342
H           2.16118503466123    9.02722395617189   -2.06486500915252
H           2.01436642291848    9.67833419646104   -5.05831069408065
H          -1.36051805662123   13.75547798149034   -6.72810315717746
H          -1.17361349358047   12.87582725473259   -0.45710895987703
H          -2.46179275621491   14.34076060107160   -2.82604951432611
H          -4.57365147033339   15.75735244605460   -1.96134401523330
H          -3.60576239602143   16.20366527578089    2.22231087756458
H           1.05574743986431   14.56384048592845    3.54568988179116
H           0.10534856892926   15.06794945728933   -0.63034070742364
H          -2.86829162272147   14.48311851778533    3.35866449269480
H          -0.48155664774898   14.80271409427649    5.26119210712477
H          -3.49271713281531   14.31201373250601    5.62788699511628
H           0.89717389437221   14.89751362885891   10.11355005866184
H          -3.91102683008344   14.14351613506590   11.19318997395672
H          -3.39721203926779   14.23359158505335   13.55255441479264
H          -1.76876609961596   14.49843323397834   15.38075874709122
H           0.61378954446987   14.87038515095282   14.87876089555404
H           1.38724983134354   14.98096056274965   12.54227444038594
