116
 SCF done       -213.175258608756          0.000711535578
C           1.07623301136071    0.75872266508595    1.52905525648344
C           2.30457116973010    1.02791785572766    2.07275697747740
C           3.12341323068902    0.05860395612800    2.69075098632516
N           3.83247308729031   -0.68114001175060    3.20760599172605
C           2.91409626893497    2.29956917973493    2.11642772398449
N           3.46880354018761    3.30273448163077    2.18733434111809
C           0.41927102754180   -0.54100914754420    1.51155460703134
C          -0.88834709113935   -0.38313930907322    0.96941925106289
C          -1.74158035530820   -1.43895296498346    0.82274182322936
C          -1.31787901068752   -2.72684308116174    1.21881863902449
C          -0.00932150144359   -2.89461766883325    1.75815504138521
C           0.85184387563113   -1.78269468708956    1.89795824979926
C           0.40500141400144   -4.18545834495628    2.14525987994253
C          -0.43155252631742   -5.25946945821245    2.00768318084559
C          -1.71969787099784   -5.09294977111934    1.47716387935106
C          -2.15383378003002   -3.85357200901471    1.09184261557657
C          -1.11733959107742    1.03057394286087    0.62863647658709
O          -2.13131390797001    1.50943969576632    0.16992918047005
C           0.16978226982883    1.72204593398302    0.92142318476001
C           0.50679759004489    2.97213704463067    0.50753049577038
C          -0.35692668887578    3.96461253700261   -0.04249666999491
C          -1.64537205316476    4.24514768574671    0.30933369679998
C          -2.05636630493736    5.46074723573415   -0.36741404113205
C          -3.32873265001906    6.04019584998491   -0.26214146887386
N          -4.36571849445954    6.52193897171112   -0.16699643668180
C          -1.00900975076660    5.94563140782933   -1.09895091255963
C           0.10079105983675    5.04000455500873   -0.95134676079141
C           1.29934402282912    5.08956524270597   -1.61143954407925
C           1.89715247784343    6.25597016519500   -2.31003770306961
C           3.00672709636230    5.80659137552016   -2.97102544520801
C           3.15423714601851    4.39166591533583   -2.72364605668734
C           2.16105085161034    3.97323072177088   -1.87658437428619
C           4.16145961038402    3.59268695870552   -3.28431534656946
N           4.98544362092319    2.94568277322354   -3.75207536409033
C           1.44737768974259    7.59685020935519   -2.16540539012189
C           1.85788324982005    8.63341334927182   -2.94009480343499
C           1.38832596049692    9.96205109402629   -2.79475212814504
S           2.05720943272897   11.20897427244253   -3.82877075283662
C           0.43732017609020   10.53255229820978   -1.96617726834346
C          -0.48519867057114   10.09450739156253   -0.90743807255537
O          -0.67693311343009    8.99748173079293   -0.43431513701383
N          -1.15800490885934   11.24132383589550   -0.51733042838193
C          -2.16577514864453   11.25615960372365    0.51489990901309
C          -0.77692920207497   12.37765027951825   -1.21225300490548
O          -1.24247883783000   13.47781808496732   -1.02094975088430
C           0.25335782812955   11.92198485301144   -2.15896237966040
C           1.05842781149249   12.47352140422530   -3.14078242260586
C           1.20622484178262   13.79860862603029   -3.62093414864463
C           0.46476111459511   14.84535386780191   -3.17822803352835
C           0.61404955798138   16.18814813235624   -3.62269592825540
C           1.19331169256273   16.63511359857303   -4.77728674443696
C           0.97257749233451   18.05848586240103   -4.88536718022347
C           1.47317015997114   18.85400701292141   -5.92642097077875
N           1.89354958268424   19.49136232497411   -6.78282536719220
C           0.22083122197370   18.48440310476247   -3.82050322877213
C          -0.00008702142033   17.36275002479816   -2.95358651660703
C          -0.53045457316276   17.39862446853300   -1.69032759113185
C          -1.36545757027893   18.47315756265822   -1.09758293019329
C          -1.53238264516643   18.17390263820342    0.22738947793859
C          -0.83371760615634   16.94287174384134    0.51697049338675
C          -0.26172381971461   16.46539362954461   -0.63251258441548
C          -0.76750119151148   16.33458571451443    1.77862048772433
N          -0.71846926553899   15.83280921027478    2.80927566170037
C          -2.00210471007892   19.51997030541438   -1.81844343612987
C          -2.54126576278430   20.62699628496835   -1.23943577254014
C          -3.18325121213638   21.62479083730971   -2.00560752346239
C          -3.71734714746040   22.77576951448049   -1.49717739201468
C          -4.38320994566124   23.82937702596476   -2.24090048587247
C          -4.63394001256045   23.85528418721417   -3.58948796689244
C          -5.29239700233772   24.91296998445188   -4.25168154972173
N          -5.82149162558776   25.73621027566801   -4.85194557717772
C          -4.28568049212931   22.84693916896165   -4.51171212258748
N          -4.03784496263385   22.07302936434507   -5.32361497248280
C          -4.75464501576975   24.87554569314728   -1.29418434578580
C          -4.34114566600825   24.47920241288195    0.00975744071101
C          -3.69181952292234   23.16033125411961   -0.06025492715245
O          -3.23411141394775   22.52892026876619    0.86995725568033
C          -4.55253470006641   25.26506050372626    1.10576717264990
C          -5.20158685846832   26.50951402015966    0.94644075629343
C          -5.62101702182974   26.91346700356376   -0.35400421004505
C          -5.38711438000332   26.07820438483643   -1.47042556985599
C          -6.26963012980773   28.15638199104595   -0.50228601522127
C          -6.49308535937126   28.96280978128056    0.58038691437080
C          -6.07827424483686   28.56456479361377    1.86005813509239
C          -5.44632000831648   27.36390579176018    2.03929400811538
H          -2.72819267651418   -1.29208269309572    0.40883239548124
H           1.83848426716132   -1.94361110878107    2.30243951283258
H           1.39713137069376   -4.30845725753162    2.55406820022437
H          -0.10511682118672   -6.24406014367017    2.30700902977909
H          -2.36605986159819   -5.95169507974336    1.37489607747228
H          -3.14441711916106   -3.71921642918055    0.68264258442327
H           1.54453679191555    3.27110629003206    0.58865998829873
H          -2.26110298694911    3.70854610139679    1.00429280813548
H          -1.04745679537094    6.79280889451688   -1.75370547330623
H           3.70202284427644    6.38458008204548   -3.54965255980708
H           1.98291900592167    2.95874938431127   -1.57619239986039
H           0.74643878244769    7.79616771457180   -1.36942007655441
H           2.56916551099964    8.47325748014617   -3.73877930448823
H          -2.33487616795989   10.22881122524951    0.83176784839406
H          -3.08860360766015   11.68405092523344    0.12301004268656
H          -1.82899510364639   11.85824874396347    1.35999197293011
H           1.98197135150597   13.94766331106537   -4.35953688386077
H          -0.30643571592833   14.65686865045612   -2.44650785360743
H           1.69389329647828   16.05071719659105   -5.52587552141786
H          -0.03370523187272   19.50423119585572   -3.60683857280797
H          -2.11722234942820   18.71641051105643    0.94579491077121
H           0.37303291107170   15.60490938357261   -0.69721457214803
H          -2.07499601253777   19.41070284764251   -2.89299675863247
H          -2.46636845829694   20.77808746367830   -0.17368177399802
H          -3.24293139242219   21.44844906926516   -3.07222879252096
H          -4.22743984543023   24.94016850393801    2.08307121265566
H          -5.71585234059966   26.41561570491084   -2.44033048378624
H          -6.58694383949267   28.45885505371814   -1.48946650772545
H          -6.99094239490743   29.91281538830325    0.45658408609938
H          -6.26203328667751   29.21376201177022    2.70302731129466
H          -5.12472196398224   27.05173910424727    3.02214511998352
