119
 SCF done       -211.971879013168          0.000593596257
C          -3.56321254903819    5.67587130354546   -7.47189343699180
C          -3.80642103903995    6.65884454565527   -6.54107606377180
C          -4.97491073491076    7.43788612901409   -6.48240614917712
N          -5.88803453944626    8.13300767065489   -6.42737740170627
C          -2.88827381057690    6.93782580171850   -5.51807560059556
N          -2.17013571109704    7.13638372718920   -4.64175233292548
C          -4.55147497817579    5.07426201629136   -8.35652276411804
C          -4.05499999028480    3.80824214224320   -8.78620985776942
C          -4.78779597686990    2.99257308905892   -9.59739605675395
C          -6.06556161160938    3.41708596721092  -10.03011879326048
C          -6.56152869413210    4.68569991247802   -9.61192716561289
C          -5.78408945847930    5.50733035819592   -8.76329545210706
C          -7.83508985303236    5.09644852333062  -10.05451485574256
C          -8.58647580110348    4.29324956496450  -10.86859101654075
C          -8.09815015688537    3.04410667840755  -11.27878992842029
C          -6.86479066149209    2.61552517065547  -10.86812695767141
C          -2.70409134409678    3.59866219610551   -8.22587019783009
O          -1.99641400201779    2.62217976756138   -8.33255127421234
C          -2.36393063617351    4.87648818359591   -7.54713058188967
C          -1.06952466174480    5.15243551475480   -7.21268289264472
C          -0.47354834480601    6.42586409679150   -7.03346389344681
C          -0.95126604864831    7.63220443351747   -7.53511036805058
C          -0.03447875051792    8.66735303938852   -7.21266817439697
C          -0.18861209768486   10.02142139914360   -7.51986915340132
N          -0.33495340402122   11.14506105292820   -7.71449590363729
C           0.99584299326152    8.11775937045114   -6.46206221945383
C           0.74197563517104    6.72240107834363   -6.30237759517935
C           1.49634086165672    5.89994280869368   -5.45036059912623
C           2.25030719455960    6.44863087240680   -4.29028185492629
C           3.10807364293313    5.42642448832326   -3.83787544973052
C           2.83413023680226    4.27993645295251   -4.58145541716107
C           1.83696110024112    4.56072073788524   -5.55054302719133
C           3.45529955623492    3.03345657845044   -4.41048159881668
N           3.96673407351875    2.01589382652362   -4.26931607737844
C           2.02208442888505    7.66348118259438   -3.68575274246056
C           0.88424643662811    8.45980991126423   -3.91331568004257
C           0.81643387379715    9.82046703482027   -3.73368714944836
S           2.18834427448632   10.81363718235493   -3.31524768168570
C           1.33457071296683   12.30836384495534   -3.60403646539127
C           0.01487595415470   12.04665285010099   -4.07135093713953
C          -0.28914108815391   10.65820162299915   -4.09178135313604
C          -1.53099917305852   10.20516660211066   -4.49643537318385
C          -2.49042667777674   11.10691597214785   -4.94950974658117
O          -3.64639535904725   10.55966871082530   -5.34913221928124
C          -4.67976166154588   11.37651701751098   -5.85943890884895
C          -2.18061781094658   12.47726031642944   -4.97925681626215
C          -0.95921807790259   12.93516953354040   -4.54699085608878
C           2.04216614391068   13.47647596307108   -3.32968712376704
C           1.56339766012361   14.76841512450403   -3.35281474402782
C           2.32647377731643   15.90677003904185   -3.07742362472754
C           3.70926760551167   16.00775901760327   -2.95206369208555
C           4.05676053800322   17.37674321779062   -2.85874100830072
C           5.36265004237196   17.87851260057936   -2.77919593287128
N           6.43220644590727   18.29458021156281   -2.74915167600641
C           2.90281596626361   18.14979832691849   -2.94022244353117
C           1.79273494070675   17.28571450798576   -3.07925530749299
C           0.45694248020092   17.66131603524506   -3.17693185849747
C          -0.06133052462273   18.94899867699033   -3.69328380050433
C          -1.40997971231118   18.98816323270572   -3.41729378540561
C          -1.77866063970810   17.76290981644231   -2.78281311482811
C          -0.65721045344851   16.95203210442391   -2.67252510739104
C          -3.06825464870719   17.42898217499536   -2.35350530423511
N          -4.12686916757677   17.13927014027369   -2.01497022605498
C           0.63586018276788   19.89258914174333   -4.48459518671794
C           1.79462372538301   19.64122747514053   -5.15884905867654
C           2.53539254638106   20.64247367155565   -5.81953760623611
C           3.80150629376395   20.44916445994254   -6.30226330499097
C           4.65362190123448   21.43969712633398   -6.93053361358722
C           4.27018503372386   22.67141258158188   -7.39725886933352
C           5.14338954000797   23.58744807359776   -8.01974123961740
N           5.79932414517427   24.37814523108879   -8.53242301006476
C           2.95791666726269   23.18503837999333   -7.35091144146950
N           1.91376102727236   23.66395631018307   -7.35426045477518
C           5.99694341536553   20.87885467311210   -7.01787188154253
C           5.96293937669927   19.54063284674902   -6.53057859197154
C           4.59239375562234   19.20107912850094   -6.12620739020465
O           4.20291564110205   18.12129201596107   -5.72443428768367
C           7.08509893641455   18.76599100139368   -6.46438920423105
C           8.31706503365214   19.30307930970681   -6.89838108967236
C           8.35876373331602   20.63716793708939   -7.39764501330543
C           7.18041173174572   21.41735745595609   -7.44803080462105
C           9.59315436614795   21.16075568123244   -7.83224474409178
C          10.73294998378500   20.40542470911937   -7.77538854497072
C          10.69141936336093   19.09374387348477   -7.27974368159391
C           9.50906170760305   18.55419721295154   -6.85079215679378
H          -4.40083873171912    2.03277668385533   -9.90593260642760
H          -6.17686360805456    6.46694743334762   -8.46300126963816
H          -8.20787920813097    6.05829804842423   -9.73383168289705
H          -9.56184533123820    4.61625043335477  -11.20048256536188
H          -8.70350055404918    2.42297132128674  -11.92185378118701
H          -6.48370314243630    1.65446486915670  -11.18121092190994
H          -0.41069042970709    4.29253299158043   -7.20108116300447
H          -1.83276467121951    7.76998809972380   -8.13422279607994
H           1.90191344508995    8.62199653109012   -6.18620182996621
H           3.78459436974698    5.49139500325124   -3.00675037272097
H           1.50838385501034    3.85754761735285   -6.29144700938781
H           2.75970846681576    8.02370623266296   -2.97623791552820
H          -0.02350028644094    7.96057866812630   -4.22561180189274
H          -1.78020052873261    9.15713519924840   -4.48624649676875
H          -5.02940647109239   12.09178287149358   -5.10981590089353
H          -5.48496399967559   10.68790116954639   -6.11210187401416
H          -4.35529313130618   11.90947276033793   -6.75751135016750
H          -2.89784515224872   13.18798885417430   -5.35695444849659
H          -0.75777378342902   13.98968903627542   -4.62294984281398
H           3.07176025196173   13.32827646354419   -3.03023344194233
H           0.52637265282598   14.93337830014237   -3.59001681322393
H           4.41822864965076   15.20206827603938   -2.96557579583148
H           2.85978636125468   19.21715794937330   -2.83641553474158
H          -2.09536661629160   19.77166227480438   -3.68106207512143
H          -0.62874545210270   16.01716952948982   -2.14464135856778
H           0.17481797422163   20.86969052321712   -4.57982589239020
H           2.19695700981585   18.64030025114770   -5.17899091040056
H           2.09381766333961   21.62977169901022   -5.87520146025495
H           7.03341510265985   17.75919506978886   -6.07806037986122
H           7.24787499247145   22.42756208332957   -7.81966569757037
H           9.62074942825257   22.17167620538623   -8.21183741637687
H          11.67360943519945   20.81568703472755   -8.11104901409302
H          11.60103059159104   18.51334007062458   -7.23921827644519
H           9.47015601137381   17.54563067633464   -6.46641434017797
