107
 SCF done       -198.879734305882          0.002629471566
C           3.60565674668483    1.55329444591588   -3.10349101895897
C           2.89952186796888    1.48499658113398   -4.27583599000775
C           2.92215807851309    0.37494348399031   -5.14801421661136
N           2.89713708460011   -0.48985750701203   -5.90218629600354
C           2.06007735332476    2.49585758077397   -4.78963845660787
N           1.35880431900998    3.27209425858837   -5.26263789798150
C           4.47271891637254    0.50803248607075   -2.57565112831004
C           5.06585484238966    0.97345226147842   -1.36752303441876
C           5.92370304315027    0.20121102761688   -0.63799145949832
C           6.23811596485680   -1.09769563681775   -1.09420486166043
C           5.64907687219886   -1.57263413579522   -2.30191682398364
C           4.76182588455830   -0.75116076028137   -3.03376578696265
C           5.96860764576376   -2.87159125560553   -2.74756134411421
C           6.82826372710022   -3.66385313549877   -2.03637634183950
C           7.40743612111674   -3.19507205955131   -0.84772448255765
C           7.11904473188064   -1.93908151349454   -0.38668425603967
C           4.61318157206334    2.34466254777479   -1.08794871847165
O           4.92959805964503    3.03070472581645   -0.14054663890476
C           3.65678315803393    2.68017481201652   -2.18141128414896
C           2.85004071622719    3.77250682294897   -2.22116916072171
C           2.89517729842968    4.91888937801945   -1.37255465359024
C           3.98945788440606    5.54274954227034   -0.84453333441725
C           3.56003306103637    6.76166366236385   -0.18817424673061
C           4.40221266457340    7.64498227964320    0.50257214899554
N           5.07434966750597    8.38663094062263    1.06339724700841
C           2.21342564919455    6.91106782088083   -0.35939982641773
C           1.72467395112340    5.77940274564197   -1.11110494177522
C           0.41882574381945    5.52275018215944   -1.43281824714280
C          -0.70547602066905    6.49475136659339   -1.43045603763751
C          -1.86284487139883    5.78029496004461   -1.50335923240014
C          -1.53085581925683    4.37476475603642   -1.60678436555054
C          -0.16803518017049    4.22839436954267   -1.62310229579125
C          -2.47569595808392    3.33999792706655   -1.66667903340494
N          -3.25221646461868    2.49634212559334   -1.70924429066388
C          -0.59493252883160    7.91712069850149   -1.49175190815686
C           0.48038894871922    8.55860325914749   -1.99898906372895
C           0.71326380079884    9.97149866199510   -2.01432977044238
C           1.92660010234566   10.47863920807331   -2.47132894727924
C           2.99681345822010    9.70752099646565   -2.92382301515260
N           3.86375513337758    9.03802132409125   -3.26923605308254
S           2.03275393279001   12.20200256591665   -2.35941091638784
C           0.43569645571769   12.28329627609757   -1.68254170164329
C          -0.13216260143171   11.02524894418032   -1.55500529538418
C          -1.43730614577701   10.86259658117204   -1.06120439029182
N          -2.50870326782917   10.75588714389342   -0.66360329740288
C          -0.09155364110056   13.52831885461547   -1.20777395241448
C          -0.79406755577121   13.71300338054136   -0.05561602246672
C          -0.92344401002505   15.13924140610898    0.18007811421383
C          -1.60160583568331   15.70352493791404    1.26939653477891
N          -2.14351359367495   16.16646920915296    2.16827041501471
C          -0.25442923621585   15.81812909663801   -0.79750939709714
C           0.26458853431913   14.85613502837089   -1.73632439297512
C           0.81942478848059   15.13915688674983   -2.95824127008051
C           1.46368223162077   16.41356953034726   -3.36016161432456
C           1.57293331110895   16.40158488360259   -4.72392174740176
C           1.06428354905050   15.14376578122165   -5.21314923655541
C           0.67449374222684   14.36274808631979   -4.15125183605217
C           0.98488217897856   14.79469102279416   -6.56964849275202
N           0.92452954150513   14.51692132014911   -7.68100616986022
C           2.05072495626242   17.35299066021813   -2.47236982418532
C           2.37447589521077   17.06505307678429   -1.18262723672175
C           2.93246596170420   18.00408813736220   -0.28618023186031
C           3.15751611183200   17.73700771754661    1.03444254856803
C           3.75733530018609   18.62310261043963    2.01760142625440
C           4.15566675212583   19.91998110692061    1.81966974458796
C           4.73119219784257   20.73220294497315    2.82037048871388
N           5.20478657189624   21.44548245534876    3.58428473754078
C           4.04572202512381   20.63886098042903    0.61103159752190
N           3.98956423800802   21.29242292971028   -0.33164755885815
C           3.85948793449535   17.88853673241496    3.27276640424322
C           3.29621124267517   16.59232831538142    3.09155001420572
C           2.82255210997916   16.45108162752991    1.70961566516199
O           2.26707868540989   15.48175253343074    1.22850650850296
C           3.24897827909380   15.67687918964418    4.10418492170479
C           3.78004620779618   16.01871366453627    5.36707324005036
C           4.35295715429305   17.31015803895733    5.55501303083063
C           4.38205858809089   18.23909806880907    4.48989791819420
C           4.88727132021612   17.63867456408451    6.81738285317332
C           4.85679881604348   16.73685848845508    7.84620776671514
C           4.29053416039069   15.46692241592060    7.66074976463723
C           3.76352719838993   15.11515376667992    6.44757088180357
H           6.35803088893458    0.57961423497223    0.27545912259365
H           4.32907948411257   -1.14314173660294   -3.94015107896012
H           5.52072605483081   -3.22808115420369   -3.66326834504250
H           7.06701654211161   -4.65697814185898   -2.38609234688372
H           8.08293238132423   -3.83418919833836   -0.29917488479411
H           7.56166605636971   -1.57229151527089    0.52764215684001
H           2.06762810759592    3.79880660961431   -2.96865701933571
H           5.01297369119293    5.23197785902616   -0.91732760482960
H           1.59838005597964    7.66738227678369    0.08853958459423
H          -2.86276034736565    6.17022477081723   -1.53580772289406
H           0.36000008301147    3.29444375875253   -1.61432394428983
H          -1.45784734907953    8.47384402647602   -1.15363066038368
H           1.28385241667742    7.97772605388023   -2.43467834178702
H          -1.16571635638157   12.95638396124720    0.60901053821134
H          -0.22076854238437   16.88270093950286   -0.92352350285690
H           2.01003977636127   17.16110487141916   -5.34445553250567
H           0.18238867799454   13.41127416059098   -4.22302988287482
H           2.30290506052004   18.32259764675951   -2.88505294175062
H           2.21349780427195   16.06826722746075   -0.80077408257104
H           3.17674233761104   18.98076258793090   -0.68312253970784
H           2.81409793095836   14.70199973875634    3.94119969642980
H           4.82201360540532   19.20746463353855    4.66618621432136
H           5.32158881424361   18.61764839290099    6.95581564433021
H           5.26918217993061   16.99764998889165    8.80923297929874
H           4.27447402816836   14.76856289532870    8.48373725036846
H           3.32708530350582   14.13870291279787    6.29853631989011
