111
 SCF done       -221.533222528092          0.000764855219
C           0.68067433575064    1.88100749443751   -6.32524179961919
C           1.10708422775265    0.62428246438349   -5.99182477400883
C           1.85725795551138   -0.21001933331153   -6.84786636632633
N           2.45181973563357   -0.93270387223545   -7.51138678705539
C           0.87304817890904    0.02577768160195   -4.73537241293036
N           0.72863000185822   -0.48011789527020   -3.71527156526583
C           0.98223457986697    2.60249037337746   -7.55256639100846
C           0.49522423802866    3.93786234435370   -7.43164902747668
C           0.63985396697133    4.85011005155870   -8.43877110281568
C           1.28609163599353    4.46172811833353   -9.63286814361353
C           1.77027827765658    3.12689255704587   -9.76292501019839
C           1.60904649161600    2.20478369101703   -8.70398072955820
C           2.40466469399953    2.74827219123705  -10.96337634945789
C           2.55443315061809    3.64344580058242  -11.98778938464179
C           2.07810782542651    4.95683061705508  -11.85884027909287
C           1.45859126484004    5.35801195713311  -10.70615490843861
C          -0.16710017654608    4.10555802964434   -6.13311229573247
O          -0.75061358791127    5.08779769229301   -5.72151927632109
C          -0.08024202161292    2.77442791485062   -5.46823224878331
C          -0.79042421652216    2.47011869273779   -4.35279741973992
C          -1.42608323543565    3.46776179657248   -3.54747291111588
C          -2.71507638786522    3.46225186730919   -3.11226399230359
C          -3.00119631802885    4.75154998624349   -2.51269368810382
C          -4.23515731086275    5.10253147212802   -1.94486313121120
N          -5.24715244200754    5.38938527563595   -1.48733754951303
C          -1.88974504179426    5.54517003263759   -2.59286943029477
C          -0.82901412590435    4.77134328766644   -3.17973653520367
C           0.50841794927332    5.06183699854003   -3.13113014458042
C           1.11895260312067    6.38634413252191   -2.90713272775379
C           2.46375366088725    6.19960752250278   -2.77158897901780
C           2.75163951281793    4.78588496685833   -2.90976040218499
C           1.58655323290729    4.11145645119891   -3.15806975498135
C           4.03437734720626    4.22686871156491   -2.81844601052683
N           5.08792241793288    3.77672354928037   -2.75689029060297
C           0.41966710295001    7.62984869685123   -2.98461738604415
C           0.83974886600736    8.77145304478816   -2.39804396733905
C           0.13703224616376   10.00668100910792   -2.49613872892113
S          -1.26978730227612   10.16514302881506   -3.50569802786379
C          -1.51939345200572   11.81087795010383   -3.02693410106603
C          -0.57387181677746   12.20389799342736   -2.09902113412836
C           0.38846096205042   11.19694062503685   -1.83306300130054
C           1.58448464158469   11.36888587550945   -0.94445942454112
F           2.68609730989408   10.80800414115916   -1.48183262731206
F           1.90568681303443   12.64244984252596   -0.72272835402433
F           1.42099412117871   10.78193237399322    0.25392353935665
C          -0.66742906560719   13.47752766235372   -1.30941935535011
F          -1.89438884364029   14.02493009743782   -1.36754106507312
F          -0.43625759883573   13.26406552927454   -0.00891175276759
F           0.18020727686567   14.43840213830524   -1.71127291756988
C          -2.60815017410040   12.55549537978196   -3.59876892710518
C          -3.88837295268789   12.12680647577583   -3.74607066802037
C          -4.68812999687431   13.23760053791310   -4.23227575419002
C          -6.04949492439416   13.14120966930417   -4.55528697656929
N          -7.15944706906194   13.04668512106058   -4.82878010395413
C          -3.89913477743373   14.34959711164316   -4.33691793686095
C          -2.55017178047576   13.96962051904426   -4.01945734861625
C          -1.40945268083853   14.68789280492008   -4.26341816246115
C          -1.27755063498044   16.16052754495242   -4.38978932485746
C           0.00808374787401   16.41800566426440   -4.78421609310107
C           0.71025110313058   15.16442551350260   -4.92357690500804
C          -0.12146307437128   14.13505531629747   -4.56458086030551
C           2.03485987270835   15.03513406638629   -5.36714715804147
N           3.11359050227313   14.92682120500907   -5.74217336623239
C          -2.26084515041149   17.09408212821311   -3.97119251284572
C          -2.16863960253534   18.44123399213451   -4.14804782484936
C          -3.16672962600798   19.31649724150694   -3.66653289932811
C          -3.13084183088454   20.67788583738672   -3.78244682167626
C          -4.12021086095462   21.61928693977755   -3.29064116483274
C          -5.33785622614513   21.31758924133500   -2.73557915239216
C          -6.25927976853815   22.28339305033667   -2.27800760983282
N          -7.05117874067876   23.01519224924189   -1.88426635106131
C          -5.86046426306764   20.01937955698946   -2.55922997979400
N          -6.35729526975327   18.99684479870310   -2.39505685532165
C          -3.60624742631676   22.96482086690632   -3.52042233864467
C          -2.35074458640661   22.86659262917150   -4.18626271963396
C          -2.01445197213291   21.44970911038957   -4.39555543948856
O          -1.02779277496479   21.01227942697019   -4.95011060742490
C          -1.63001266902952   23.97202275457774   -4.53655573292775
C          -2.13989875822381   25.25289852436419   -4.22908598117009
C          -3.39405710844830   25.36061441227524   -3.56098100407396
C          -4.11833190680803   24.19771526100867   -3.21208504303728
C          -3.89350608029492   26.64349510425212   -3.25743928255714
C          -3.18935714216445   27.76681628564974   -3.59648039010292
C          -1.95446262773724   27.65947746355165   -4.25361639387583
C          -1.44087648397632   26.42926993122882   -4.56348604018934
H           0.26321232779586    5.85595122954363   -8.32591749944502
H           1.97811608768628    1.19959926797449   -8.83341509236347
H           2.77070256995065    1.73665459416439  -11.05758590474264
H           3.04104325755544    3.34394394432899  -12.90359433391501
H           2.20403169272093    5.64915517835819  -12.67748560283918
H           1.08967418458185    6.36772947029876  -10.60172494546467
H          -0.95487191830784    1.43691438232409   -4.07341898719008
H          -3.43972500804066    2.67969326127225   -3.24043623015756
H          -1.78307135906143    6.51902397529456   -2.15564004544118
H           3.21520272880745    6.95466864463559   -2.63693085278468
H           1.47951323169064    3.04676763458347   -3.24220950787161
H          -0.49136271325056    7.63605004143796   -3.56989611986132
H           1.72537820253730    8.75721183197446   -1.78190522100136
H          -4.27881618340653   11.15486477999078   -3.50871675296491
H          -4.20367978557533   15.29935036694506   -4.73149297004656
H           0.46359232210938   17.37826961700625   -4.93258678156873
H           0.11396926441506   13.08984747192697   -4.62329729419378
H          -3.12091991359217   16.70072640413474   -3.44516697821349
H          -1.32805647652016   18.87152517252912   -4.67000830018112
H          -4.00423758521763   18.85764294767838   -3.15621942417578
H          -0.68077594782644   23.86925486761255   -5.04125995521790
H          -5.06239399969100   24.31478071676157   -2.70435329871635
H          -4.84471645167278   26.72115725359188   -2.75164082430878
H          -3.58031548683284   28.74494947984805   -3.35979109660171
H          -1.41209446392658   28.55631979117811   -4.51292623165470
H          -0.49055852686068   26.34031134388684   -5.06922792926079
