136
 SCF done       -230.510525589329          0.000309231232
C          -4.51342695208069    6.29595712155712  -10.40178306691217
C          -5.30520600026980    6.46563085981461  -11.50753176829134
C          -5.17406699302333    5.71895553650534  -12.69668872332342
N          -5.12430586808617    5.13457329447166  -13.68345060036643
C          -6.33853193920396    7.41991914397107  -11.61036208172679
N          -7.17617441810241    8.19093962386843  -11.76057294525985
C          -3.37203851037238    5.39576255530726  -10.29658752752910
C          -2.74729466972039    5.59934024251152   -9.03255719515320
C          -1.63956142165086    4.89662994420847   -8.65405005936272
C          -1.09333360997772    3.94190144491946   -9.54045212167225
C          -1.71560130425266    3.72843612169447  -10.80432664727033
C          -2.86333879935923    4.46973621413072  -11.16794321523632
C          -1.16639209286369    2.76809308295959  -11.67781355481582
C          -0.05540010984578    2.05258278639993  -11.32234601762970
C           0.55691880865457    2.26402814955101  -10.07806303971444
C           0.04960451227805    3.18915024257076   -9.20646640261208
C          -3.49085936087153    6.61652327050085   -8.27517559071106
O          -3.29937679043393    6.94548769001361   -7.12073993229964
C          -4.60172427321368    7.04397206909208   -9.16307060682154
C          -5.61182159727528    7.86548718452257   -8.75843527659234
C          -5.55075764406928    8.70071516455725   -7.60845478320266
C          -6.55369769293800    8.88600528025779   -6.69140610066248
C          -6.03653622543258    9.66784625810388   -5.60102843819479
C          -6.77324916527744   10.05861047997399   -4.47583605036059
N          -7.37395696080860   10.37248865695051   -3.54897395585868
C          -4.71474190241728    9.96454794405900   -5.84837239228594
C          -4.36132027710173    9.41363336587419   -7.11921504817312
C          -3.23126642186978    9.72054357114349   -7.85058281703510
C          -1.94701781469642   10.23290850418616   -7.31360654003796
C          -1.21225859163975   10.68413048821873   -8.37948253761013
C          -1.94862317279571   10.42120924675508   -9.58264911147725
C          -3.14381813857851    9.80446305825522   -9.26434333462887
C          -1.50244443728501   10.73615558726381  -10.87218449082069
N          -1.12264954790560   10.98823189245600  -11.92614750855463
C          -1.48920809992838   10.11289395918638   -5.97594075309412
C          -1.94159516035686    9.17535430749909   -5.10322741358467
C          -1.52893821426283    9.00901639107764   -3.74228635874666
C          -0.79574983777610    9.96306273227456   -3.05152682540823
C          -0.44225030157324    9.74503292131699   -1.71448299810756
C           0.27979952054942   10.53593076969275   -0.81283207908528
C           0.86548669436057   11.87873163506569   -1.04098406718648
C           1.84054911904300   11.88423107633903   -2.24677373203727
N           3.07526135318974   12.51127249094997   -1.83209505799806
C          -0.24271095819880   12.94376899314529   -1.21966633629732
N           0.32827465824228   14.17686165107953   -1.71374903100882
C           0.34420345111329    9.79618947181929    0.42269245347208
C           0.93972248463710   10.08277073344631    1.59700247648980
C           0.80865601630170    9.18189119109124    2.77523563358742
C           0.13805189350054    7.88197047631268    2.48890089184914
C          -0.42920989475718    7.59468087030447    1.30077767438152
C          -0.36961991387366    8.52874872416193    0.23981933218252
C          -0.84348181604406    8.50919045279693   -1.06145423210774
C          -1.59610444777448    7.55499004690575   -1.77982124781681
C          -1.92863401789368    7.80739548737689   -3.07252450377024
C           0.00663033288275    9.96646498074472    3.80482424414116
C           0.52590907149362   10.94760273847707    4.53859392505835
C          -0.21583116069416   11.72750183326062    5.50485647477011
C          -1.12375414129606   11.28111826091488    6.40853137268962
C          -1.49759533528371   12.39327698452366    7.27113736990465
C          -2.43186161478785   12.32043080680291    8.30936241096360
N          -3.19183318999344   12.25520547977032    9.16848706198052
C          -0.78571124972666   13.50456264343500    6.90607227100913
C           0.01165989881857   13.16163986646142    5.76467831571885
C           0.71063256659837   14.01525119400773    4.93881649862080
C           1.19700949329323   15.38068837060928    5.21298170125326
C           1.68566777721818   15.88351112066790    4.02966294213241
C           1.52397751889644   14.89241841968328    3.00442854723607
C           0.97424725670342   13.75729879521728    3.55997688996075
C           1.85053465440629   15.03460008809346    1.65444691190126
N           2.10187953601969   15.10988557411237    0.53463349413637
C           1.24663509427274   15.97907542909633    6.50021679792711
C           1.61813032072492   17.26481407086187    6.74565169070862
C           1.68788259801497   17.86448223659049    8.02668949920404
C           0.93975723552949   17.57535554744051    9.13660895420824
C           1.15275684660927   18.12882738125489   10.46143252773469
C           2.29498474741238   18.74312491728933   10.90830236399690
C           2.45990125080679   19.24611551269191   12.21518891487971
N           2.65223313208029   19.68259055606149   13.25966530975109
C           3.46758306884555   18.92486590480812   10.14636746776091
N           4.46429983618045   19.08520550382375    9.59808648896453
C          -0.02159209513228   17.82890821877798   11.27120400197676
C          -0.92467967733908   17.05982135855381   10.48370233906446
C          -0.36636966338938   16.87052649765025    9.13794591092920
O          -0.92084263074277   16.31941296421137    8.20690169242695
C          -2.11104257443793   16.60054417649718   10.97939671599281
C          -2.45838898923947   16.90290608342886   12.31475707945340
C          -1.57039814603455   17.68879960881577   13.10514977501990
C          -0.34603934495899   18.14537170225629   12.56360731164066
C          -1.93463592568761   17.99415905270804   14.43210476578225
C          -3.11575263175881   17.54229598782048   14.95552547999718
C          -3.98600926828128   16.76403358622963   14.17781214917751
C          -3.66410416776952   16.45017066450365   12.88508316971595
H          -1.18312108503825    5.06894231451397   -7.69032601208069
H          -3.31542775050503    4.28110658087718  -12.12870787584825
H          -1.64062882673826    2.60981853897421  -12.63516562349366
H           0.35798981881022    1.31951848489385  -11.99856773577840
H           1.43245246748550    1.69016933484222   -9.81348507639242
H           0.51678118816990    3.35617085823627   -8.24677261859757
H          -6.54948704850195    7.86486132038298   -9.30091247396597
H          -7.54415215374366    8.47149125812036   -6.73066240547978
H          -4.09440881431401   10.60833953656941   -5.25503919740681
H          -0.22551349610155   11.10719865520966   -8.35072682392335
H          -3.92532618617735    9.56160997660537   -9.95919331095091
H          -0.66334175972086   10.75958634125902   -5.70564867495893
H          -2.64375131225614    8.43961357364940   -5.47095443261175
H          -0.50033223166679   10.88012712532738   -3.53601856473230
H           1.46335269019734   12.16332936065351   -0.17041684747201
H           1.35491562662113   12.39780330117442   -3.08848569786554
H           2.07048884595899   10.85653438807911   -2.54382711519820
H           2.91561687770914   13.48832904315991   -1.61281155597444
H           3.78260717542684   12.45054158948140   -2.55425901531289
H          -0.76609503019706   13.05075858415817   -0.25350850960238
H          -0.97392553023390   12.59047673185982   -1.95256379201443
H           0.94305112525090   14.59390534821060   -1.01737624634566
H          -0.39747581582394   14.84697589066709   -1.93762470634415
H           1.50210127089826   10.99470899998945    1.74178664393380
H           1.80572085520154    9.00036502536333    3.19855661414590
H           0.09313543187303    7.18374491722405    3.31100431954146
H          -0.92553570973727    6.64893424590147    1.14023441579589
H          -1.90325253318850    6.64063088213560   -1.29449365218397
H          -2.50735258327708    7.09160068039799   -3.63746860649725
H          -1.04511032862405    9.72916198099263    3.85913273125903
H           1.57364661713056   11.20599423674146    4.43328829971344
H          -1.48817252061045   10.27766708370836    6.52468008501047
H          -0.91415088507700   14.48743598018191    7.31451969647537
H           2.14891795141066   16.83848648940943    3.86909315355351
H           0.66679410866484   12.88087641580892    3.02242811426321
H           1.01951680108986   15.33900426172068    7.33746483832463
H           1.95587123422999   17.88074634181046    5.92263182843184
H           2.39712279924244   18.68067535169928    8.10844581148394
H          -2.77238028535457   16.00845525670465   10.36402292625525
H           0.30318871901955   18.73920674322364   13.18735389988913
H          -1.26022384354752   18.59086451106168   15.02871936433979
H          -3.38499808664862   17.78139771737753   15.97348413242710
H          -4.91262906335623   16.41440003754849   14.60784383813627
H          -4.32793229328517   15.84996012500379   12.28051067606686
