110
 SCF done       -199.647228557176          0.000882262974
C           9.03047196263928    7.57052234637156   -0.07163231109728
C           8.37906838264304    6.37283461469746    0.08304251034438
C           8.87930490389483    5.29559773341642    0.84665500682418
N           9.22044431848335    4.38123144290312    1.45091518187323
C           7.12608645278962    6.02033411781770   -0.46137919972073
N           6.11333753462478    5.64998966484690   -0.86004092189910
C          10.31296609743105    7.90876936148685    0.53164952248607
C          10.63174301357980    9.25501649533024    0.19644061377222
C          11.77732887733668    9.85740684050572    0.63069543399917
C          12.67752736289869    9.12525763966438    1.43613511701628
C          12.37090982799026    7.77430655684711    1.77028327459183
C          11.17649001009948    7.17833726320418    1.30608358124248
C          13.27772155659506    7.05006683449127    2.57090156283157
C          14.43090588211429    7.63164668699791    3.02272892005984
C          14.73044732243707    8.96257442571869    2.69518961921062
C          13.87266148907899    9.69357804609232    1.91864754427252
C           9.56241377424611    9.82426097406046   -0.63942151664551
O           9.52499002184584   10.95266970943887   -1.08219629648812
C           8.57054314984940    8.73263898996389   -0.82227091125647
C           7.45170450569308    8.72975124119717   -1.60160189089412
C           6.82407224313965    9.75077958712325   -2.36078868051871
C           6.92777836473521   11.11817100655701   -2.28049221078462
C           5.89703105962158   11.70804272162632   -3.09748930930748
C           5.70707915892753   13.08658917261819   -3.27001986846071
N           5.52911027076756   14.21346042094261   -3.39330963462761
C           5.12167275978875   10.71168446290469   -3.63856433515057
C           5.67096142058457    9.45010979587624   -3.23403792930013
C           5.25670601387647    8.20926069657900   -3.66092447903804
C           3.90484545414649    7.83400163304486   -4.16184592216832
C           4.01456688570814    6.59101178700694   -4.72684351122819
C           5.36802522157992    6.13394814435239   -4.57112807357059
C           6.09478763691652    7.07953205160430   -3.88024421620314
C           5.85997772312646    4.91820419271073   -5.06671824272614
N           6.25963648966510    3.92698168737961   -5.48401803022440
C           2.68012288346094    8.50678559533089   -3.92659560845229
C           2.47709416267221    9.49088688097477   -3.01130425398134
C           1.24544601127564   10.15592593752426   -2.78896214676633
S           1.21407283477114   11.53919683809890   -1.72591107114515
C          -0.49372102263500   11.75324490160015   -1.94279822466363
C          -0.99741207143658   10.77562932215848   -2.81037325600601
C          -0.01659172118420    9.89575238480598   -3.28783193096723
C          -2.34150658652089   10.68010899791028   -3.21022052061749
N          -3.42700334040497   10.57246643622346   -3.56539624597435
C          -1.14583926163954   12.82431571931949   -1.28754466593555
C          -2.48848927610534   12.95653364656180   -1.12468924149212
C          -3.09866917480522   14.05416197561845   -0.45963670031631
C          -4.24406875318052   14.00189400005087    0.28464100074129
C          -4.39512519885323   15.25624234284393    0.98224156524725
C          -5.45826082002525   15.56336706994231    1.84324692827297
N          -6.32611291139595   15.80673993808921    2.55338643397095
C          -3.33924165506396   16.07916125076247    0.67798261987693
C          -2.51501448776556   15.40623213316653   -0.28045104985164
C          -1.54237909923741   15.97826070118304   -1.06289619240881
C          -0.78536362454326   17.22264049729679   -0.80140937582959
C          -0.17657407197508   17.58396580324658   -1.97456981766285
C          -0.48200951323314   16.59514607459360   -2.97788200001980
C          -1.25481526201498   15.60740736186095   -2.41903101570458
C          -0.05397870656138   16.64978141899659   -4.31253001805530
N           0.29817199658309   16.68862364829019   -5.40374690404630
C          -0.55075061294194   17.82720059948651    0.46187640656991
C          -0.71517717740700   17.20363996594882    1.65933474802328
C          -0.45647217670912   17.84271227147673    2.89184911729260
C          -0.64104784279033   17.25287296187947    4.11088783995493
C          -0.36780714040634   17.83617191224506    5.41204778234402
C           0.08959695669040   19.10338750482400    5.66768884889923
C           0.34217861456801   19.60806418364023    6.96113567762765
N           0.57145103890373   20.08218384713510    7.98115000688051
C           0.37322838278557   20.08840102200250    4.69886617099836
N           0.62531705012764   20.94292489009466    3.97387542586846
C          -0.66447517679584   16.82656494030584    6.42201257572615
C          -1.13661646356018   15.65194249909563    5.76903679164760
C          -1.15527023500539   15.87182668016143    4.31542742848518
O          -1.51852444573766   15.07923593407850    3.46777690212799
C          -1.49091243477014   14.53158337392378    6.46457887343668
C          -1.38230813644528   14.53153617417862    7.87281494756223
C          -0.90970967530101   15.70192926293917    8.53419199370936
C          -0.55497079435467   16.84871029507172    7.78747745680911
C          -0.80144620548103   15.69077146832376    9.93966373596998
C          -1.14162192591316   14.57738436529881   10.65888468896528
C          -1.60650284100694   13.42551564650140   10.00670100259134
C          -1.72504875707703   13.40320719033124    8.64341262385192
H          11.99274741482635   10.88115927072900    0.36270810992513
H          10.97702788530824    6.15382933705804    1.57604928418793
H          13.04196344698220    6.02611406371512    2.82104677558538
H          15.11899610055777    7.06904529560886    3.63557211642328
H          15.64454895024801    9.40562576346576    3.06098838112327
H          14.09826182308588   10.71850282049945    1.66303588148692
H           6.92071626325587    7.78866596513881   -1.64764826042038
H           7.63496733986294   11.67688381406107   -1.69899094911621
H           4.32489980322161   10.84228600936911   -4.34629049630458
H           3.22529567751294    6.01079111866766   -5.16651344556209
H           7.15210320963079    7.03653008086217   -3.70111640507417
H           1.83603810871177    8.13452681913737   -4.49286570524203
H           3.29357276589104    9.81208890741394   -2.38034611504725
H          -0.23866376578036    9.08780103577873   -3.96147895573530
H          -0.48723746643846   13.56173995971923   -0.84662161130537
H          -3.14727012478902   12.15331954221421   -1.42620805708883
H          -4.90461692523244   13.16237217452518    0.39341768042875
H          -3.22411721172673   17.09804992598449    0.99305203803009
H           0.46526793511054   18.43036826028090   -2.13285211777371
H          -1.69720650838003   14.78264706726771   -2.94387008851852
H          -0.14299394664775   18.83139175496363    0.44112985706677
H          -1.03881229495528   16.17448141161928    1.69486709707949
H          -0.09483195553946   18.86184881846622    2.84649678342094
H          -1.84808011382336   13.65480688734943    5.94487998718300
H          -0.20137513254162   17.71742353948749    8.31938659520228
H          -0.44341185167752   16.58008514924890   10.43722350110892
H          -1.05438345134608   14.57826499271436   11.73498013832663
H          -1.87032690473818   12.55602938152722   10.58992641031765
H          -2.08293754952380   12.51943462122912    8.13577181999758
