138
 SCF done       -228.291925802203          0.000562811364
C           4.73137962905810    6.22076002596042   -1.19685599687718
C           4.54899174040082    5.09329638718243   -1.95504482053748
C           5.59359003585263    4.41829922761406   -2.61535215171552
N           6.41863326246153    3.84709621799669   -3.17290538083374
C           3.30649776627132    4.43289858244043   -2.04678245056346
N           2.32269851522045    3.84142451648975   -2.07824350093287
C           6.01289612752583    6.77629826942557   -0.77923635679138
C           5.79865116172741    7.57735678209047    0.38168820198922
C           6.83173868153347    8.19487287194524    1.02510244136909
C           8.14474907094314    8.04524251237904    0.52400886240142
C           8.36236577318787    7.25839246342000   -0.64374616079528
C           7.27418111677895    6.62377972172926   -1.28675074414697
C           9.67651689560296    7.12289011912474   -1.13488405840914
C          10.72700082773418    7.73108266266136   -0.50315897923174
C          10.51190548242991    8.50456969018451    0.64704732615778
C           9.24831778567935    8.65791009887038    1.14953435080816
C           4.35853709929384    7.60566055832480    0.69872948197746
O           3.80733364864279    8.15238249962241    1.62860027899563
C           3.70343384297838    6.88098123769058   -0.42297191607123
C           2.36500257202645    7.00199487269549   -0.61975004881475
C           1.61772164163067    6.80435015689198   -1.80886080167647
C           0.25642576325164    6.58138114631202   -1.86180240992714
C          -0.24125258199889    6.50951835777470   -3.18949726233845
C           0.79312164504763    6.69086538528161   -4.13861726242812
S           2.33912823651153    6.94511526289569   -3.40690794668727
N           0.64075712185146    6.68946172669144   -5.44846151585422
C          -0.58323433712535    6.49227290868282   -5.88097113299699
C          -1.71452760181564    6.33473700277414   -5.05339167293388
C          -1.56059731903287    6.35444270732127   -3.68354887131285
C          -2.74129752945816    6.31327050190116   -2.76041182202301
C          -3.13712644505559    7.73379365644753   -2.35287615781847
C          -2.99910878946637    6.23350254338751   -5.82202567797279
C          -2.64600436025540    5.86708587126353   -7.26126061932118
S          -0.93546379105974    6.45137095458016   -7.58347798221980
C          -0.50693994765917    6.34228650385074   -0.62661080159019
C          -0.85004114128210    7.36959247409770    0.19969786482482
C          -1.56518022732065    7.09921572555631    1.39255589630125
C          -2.02468071956888    7.93827816234962    2.38866030278929
C          -1.97691632534150    9.43236866480183    2.37092497931693
C          -3.41278227827005    9.99611691551596    2.25908626617845
N          -4.16554678678647    9.45484438779248    1.14019659259017
C          -1.23070677887109   10.01503914210233    3.58075152710702
N          -0.03387250895912    9.23570636429165    3.84102605277289
C          -2.66788641711560    7.10033515752566    3.37417735044958
C          -3.24341350174360    7.38120837632780    4.55647318486727
C          -3.85752944422681    6.32653178757516    5.40332672024539
C          -3.78832345072718    4.94125854054320    4.83467469897972
C          -3.18296377400083    4.67107596484920    3.66474851551142
C          -2.59604093693927    5.70849485123827    2.90299880586855
C          -1.90612809098732    5.71736008844872    1.70732889708484
C          -1.50891140401267    4.67972278361499    0.83277256256536
C          -0.82822758258846    4.98561020103055   -0.30161569691223
C          -5.28778699025371    6.63993817670950    5.74979481075258
C          -6.03270437072275    7.56299388311032    5.13621488908926
C          -7.39051974702461    7.85052818794237    5.49172278631471
C          -8.24429358340745    8.73808746437266    4.85383597946832
C          -9.47527372911112    8.93517257761418    5.57909284526366
C          -9.49786955910812    8.14818926322179    6.74881797138448
S          -8.04848057485416    7.22178720948647    6.97163491719691
N         -10.48023991802767    8.07591858769975    7.62513799750710
C         -11.52766608489737    8.82317532650888    7.37041660062654
C         -11.66464176344300    9.63594301879826    6.22978199300763
C         -10.64237877961923    9.68895548300542    5.29872630891679
C         -10.83146009830777   10.46699546340234    4.02592884179468
C         -11.04301805642523    9.52316808437078    2.84039203952459
C         -13.00323959786211   10.31349380351349    6.15239245054070
C         -13.63030919045802   10.26515011251631    7.54406683147427
S         -12.90194563464099    8.83985424314731    8.43996308423099
C          -7.90149173079627    9.41761023258508    3.63993814928781
C          -7.32317762349997    8.89229039767527    2.52702523437302
C          -7.03474742129327    9.63769095502218    1.31147876949305
C          -6.89269434390028   10.99430824916722    1.20557540888136
C          -6.57421674697688   11.65827485516703    0.00348736790016
N          -6.32214034600440   12.25534148521993   -0.94427769648639
C          -6.98683341157357   11.90014018152226    2.28108158189844
N          -7.05042783349463   12.69514519391499    3.10815668690534
C          -6.88323354438169    8.67541717721973    0.22933588720315
C          -6.92395489124339    7.36351280726039    0.78069611628074
C          -7.16656282801519    7.44285024439046    2.23393373491649
O          -7.28296744734834    6.51019625931523    3.00001078086221
C          -6.78697414049165    6.25025472580162    0.00253170768727
C          -6.62999117226410    6.40106872246494   -1.39391802785455
C          -6.62977312889921    7.70954890032281   -1.95775030354725
C          -6.74866690627917    8.84441868959179   -1.12283671283924
C          -6.50924241504396    7.84560064921746   -3.35627527449391
C          -6.38964274672991    6.74537162060987   -4.16028404982138
C          -6.37898080088202    5.45775434679004   -3.60254341564205
C          -6.49496439213177    5.28972039131315   -2.24929824403849
H           6.65132437936297    8.79016258490739    1.90799996132811
H           7.46210232514368    6.03938683907697   -2.17417974387630
H           9.83763876108580    6.52395549420822   -2.01916860904310
H          11.73028902494127    7.61893444190406   -0.88619846073239
H          11.35192208925407    8.97827677113665    1.13284351369081
H           9.07625194084871    9.25240613233797    2.03503937285011
H           1.80403228550556    7.38439550736262    0.22784121334443
H          -2.49467782787787    5.74088229035736   -1.86694588026885
H          -3.58974798061121    5.83354320070229   -3.24896290594833
H          -2.29062261234307    8.24679588184900   -1.90431111435793
H          -3.94764103287755    7.70189005702101   -1.62935086484516
H          -3.46763203678925    8.30410201835767   -3.21805741737882
H          -3.51067903171889    7.20037184038459   -5.78845820352352
H          -3.66830032842696    5.48462659035728   -5.39652122811508
H          -3.30442469001842    6.32794362404827   -7.99341606851786
H          -2.64396007368617    4.78714398945642   -7.41175875043981
H          -0.57541769932891    8.38529769651404   -0.05248284149847
H          -1.43210982978193    9.73633606106085    1.46855538401347
H          -3.38054665872125   11.08372835276425    2.15400066851259
H          -3.97069660976304    9.76080072216043    3.16982584380907
H          -4.11555754295426    8.43900536007179    1.17028951047846
H          -3.74358485578566    9.74629560580674    0.26346037997680
H          -1.85752950245314    9.95853193712619    4.47446073533204
H          -1.03372343514500   11.08463424980060    3.38520519672617
H           0.57690309422201    9.22910735325562    3.03082160686001
H           0.48794758417140    9.62995214356169    4.61541452776232
H          -3.27622780054336    8.38343849203123    4.95828670858993
H          -3.30228828193546    6.31857857646538    6.35762486055026
H          -4.25434569303790    4.16431984097680    5.42045592845936
H          -3.13875913458809    3.65827123335604    3.29057005177756
H          -1.73938990949407    3.65412287497934    1.08035535163439
H          -0.49091866028443    4.21439857038510   -0.97805041542003
H          -5.72411346183500    6.02741558673011    6.52714032892596
H          -5.61780054934426    8.15522822825637    4.33210726673047
H          -9.97706551984024   11.11811743175964    3.84415713447344
H         -11.70612590378966   11.11000004626630    4.11663048813836
H         -10.20715363072335    8.83666759878416    2.73087192510231
H         -11.14638840235009   10.09373818936363    1.92041444856182
H         -11.94692465715942    8.93578704278425    2.98646392156854
H         -13.63263952753436    9.77987712753479    5.43333881695223
H         -12.92027458132156   11.35120307490391    5.82657882488822
H         -14.70941050050201   10.13562809107083    7.51908169434465
H         -13.39115976309527   11.15834165880416    8.12202843580682
H          -8.18172403933553   10.46079136647322    3.60196935550701
H          -6.80958748068015    5.26558156711463    0.44540911556412
H          -6.73984755703222    9.82264519354621   -1.57637279503581
H          -6.51614077135436    8.83938321444500   -3.77964955645469
H          -6.30725326295457    6.85972626466532   -5.23120403223296
H          -6.28656709816107    4.59853768925027   -4.25099904162963
H          -6.49155337206044    4.30062373284135   -1.81537365226351
