113
 SCF done       -211.782970343887          0.000935061734
C           5.11294539883156    2.84735048490903    1.97925906182488
C           4.54127548444740    1.77105139373194    1.35615226257596
C           5.04902321520190    0.45654041512174    1.43102801961504
N           5.41826640839810   -0.62958319850111    1.45684059154784
C           3.35373922180322    1.82896395171652    0.59610998517007
N           2.38595293061329    1.81622625450676   -0.02153915095148
C           6.29423172399866    2.82271001133686    2.82938024800832
C           6.45100724451673    4.10659786630460    3.42701742275314
C           7.48240705556403    4.38517219494084    4.27733425163180
C           8.42519271836250    3.37513579208048    4.57004172323767
C           8.28080573779642    2.09061070486036    3.96913316667082
C           7.20036209917127    1.82981123509649    3.09598289206215
C           9.23433811642499    1.09404177529376    4.26119667604205
C          10.27920746831443    1.35143979340713    5.10645793137701
C          10.41890799949158    2.61546386681275    5.69900837264146
C           9.51107964423882    3.60557529119522    5.43739454004176
C           5.36924992634267    4.99909622809329    2.98046261688872
O           5.17732223246936    6.14140634759103    3.33412775147500
C           4.60390967954797    4.21137762256740    1.97045121753414
C           3.76767582809979    4.74533788945358    1.04520999576784
C           3.26355856139951    6.08394866918615    1.05525839857592
C           2.78993108802771    6.76659988462494    2.13618038795011
C           2.25345777733615    8.03360495978501    1.68218307544201
C           1.64327755244322    9.01087384640482    2.47712609288723
N           1.08777243014180    9.82389509740771    3.06839998386768
C           2.38393475246204    8.11667071324152    0.32448305027032
C           3.01467289499012    6.90824976222884   -0.14587418356949
C           3.40031470087094    6.63343292864189   -1.43002046939884
C           3.02722404730583    7.39139035469473   -2.65590328071142
C           3.78542736886128    6.90936149595093   -3.67956237392985
C           4.62862985560442    5.84632736571002   -3.17193381792006
C           4.37540564507212    5.66207916099620   -1.83922878986120
C           5.56151814421495    5.13964070094721   -3.94437595969261
N           6.32570132980990    4.56635946850775   -4.57995455510515
C           2.02174833393696    8.40230040835728   -2.70494476490444
C           1.99581259366683    9.40720802730780   -3.60915684891925
C           1.08416999007991   10.50800366790786   -3.53434714025732
C           1.06199695103204   11.49685255609784   -4.51479347283242
F           1.87215481657304   11.37059847846980   -5.58001305170223
C           0.25807341851855   12.64206062040943   -4.46061366020014
F           0.41261766287222   13.53306898242245   -5.45879398790607
C          -0.61327515968909   12.91044525499246   -3.41218892612881
C          -0.59021567375792   11.94009728266060   -2.38276333901992
C           0.21954112151762   10.76751635290980   -2.44076570836647
N           0.00931749494123   10.08989244596824   -1.30127329262026
N          -0.85715554213046   10.81171110017943   -0.64319710537528
N          -1.25554164526048   11.90756262726589   -1.21870644606781
C          -1.33690459236046   10.43040390121652    0.64905340678770
C          -1.39974434093751   14.11151293379781   -3.28111328616046
C          -1.64410802187900   14.75431784767814   -2.10690145780131
C          -2.29522244895151   16.01722168162073   -2.40030030145590
C          -2.74032749092727   16.91681647907023   -1.42124827271704
N          -3.10453909312154   17.64214654211681   -0.61028774808697
C          -2.40639260562795   16.16376524250057   -3.75549976019207
C          -1.92973622780111   14.95330179406732   -4.37220433318317
C          -2.16363639458712   14.57056681638370   -5.66576696161211
C          -2.46047880121955   15.44518293050291   -6.82396999780445
C          -2.81749495217914   14.63027111932480   -7.86492742653530
C          -2.75821965931503   13.25699715183078   -7.42019329928624
C          -2.31990573125113   13.21896233261976   -6.12237218320452
C          -3.09802349445749   12.14844658596494   -8.20972273298883
N          -3.37722792526104   11.24193004124482   -8.85486944431544
C          -2.20727321542634   16.84167509258969   -6.86256358084781
C          -2.56035634902748   17.66996591761376   -7.88345006758290
C          -2.21736071000035   19.03970382791238   -7.86105002472794
C          -2.50736963625532   19.93831427370832   -8.84908033160580
C          -2.15688315542567   21.34647118363922   -8.87268546359793
C          -1.49232947360926   22.04785226966833   -7.89865659189430
C          -1.17715334079002   23.42034165340813   -7.98713051393013
N          -0.88957883564087   24.53175599482828   -7.99208286813234
C          -1.02772448110679   21.52225382727716   -6.67523040602669
N          -0.61959052333990   21.17274567618276   -5.65988596048327
C          -2.64123229856421   21.90362773652500  -10.13089552777583
C          -3.28592212232329   20.87086428443498  -10.87014536851692
C          -3.23250455769574   19.61351010369246  -10.10681930985301
O          -3.68772071520894   18.54034413335732  -10.44460511430359
C          -3.84112255101647   21.09844299938313  -12.09633259804906
C          -3.77584292264649   22.39535112570542  -12.65247319046764
C          -3.13250383021687   23.43461631617860  -11.92015048889100
C          -2.56719365987370   23.16862598958423  -10.65204281437876
C          -3.07189425224894   24.72531356628773  -12.48393811573694
C          -3.61978829194936   24.97898317508294  -13.71188359244072
C          -4.25296539376758   23.95491786900095  -14.43202216364342
C          -4.32944036293125   22.69057047720020  -13.91364872049139
H           7.57767017371760    5.36570782868095    4.71981807667247
H           7.12150811169057    0.85094495011844    2.64988841335757
H           9.12205601354691    0.12205631344241    3.80404595295943
H          11.00449418366328    0.58183675284140    5.32341086406969
H          11.24981279336238    2.80108352324814    6.36290138793112
H           9.61351654336607    4.58094391209277    5.88991968114611
H           3.45392325142301    4.13247881483599    0.20894089281830
H           2.75835259562751    6.42846260133268    3.15339440492789
H           2.14186259458000    8.97629462480565   -0.26774091103932
H           3.75591575053738    7.20871589111685   -4.70985537456524
H           4.90148497739986    4.98770122812865   -1.19236268484675
H           1.24844433449168    8.37407970237327   -1.95370662434574
H           2.72828677490567    9.45046526489644   -4.40302231305755
H          -1.67437451277857    9.39503024621148    0.62302138116832
H          -2.15906992699746   11.09195180497388    0.91030761131522
H          -0.54185661475752   10.51807894232583    1.39323311023895
H          -1.37563880212876   14.42038892898760   -1.12365910784457
H          -2.90882661911668   16.96569785122931   -4.26058382975459
H          -3.06099593442761   14.92485343901591   -8.86798331028684
H          -2.22517440432004   12.34072345106173   -5.51210724307049
H          -1.65715062639683   17.26184869775385   -6.03024396748870
H          -3.11473648858336   17.29830245341225   -8.73109954229087
H          -1.67246802264147   19.38243465760190   -6.99045158886072
H          -4.32404208390226   20.29710702805609  -12.63575803328029
H          -2.08747053692343   23.97779000871131  -10.12502711909966
H          -2.58332466273356   25.51034774562900  -11.92561550725870
H          -3.56817609360770   25.97079999358369  -14.13534471084880
H          -4.67976587692331   24.17284433299326  -15.39956803002097
H          -4.81561507823847   21.89805998256006  -14.46354465663564
