106
 SCF done       -192.436664469733          0.000768604711
C           8.87344878338452    6.49808618238984   -7.41878610074929
C           9.42119941475804    6.62338186582210   -6.16778347529990
C          10.75651575142751    6.28799952835340   -5.85328478343787
N          11.83007619037275    6.04539422191602   -5.52777319172318
C           8.76481974445064    7.08793090305779   -5.00840407966034
N           8.30196220452375    7.43634100323159   -4.01566141475995
C           9.56554833809979    5.97540009531736   -8.58953833247763
C           8.66655071591369    5.98413414098434   -9.69388928171487
C           9.03464431881258    5.53612341800992  -10.93011386766983
C          10.34674348051844    5.05094491380073  -11.12452398041897
C          11.25349244493019    5.03795769591263  -10.02503676908093
C          10.84295361374132    5.50647637554045   -8.75667314385530
C          12.56045065433459    4.54938064203726  -10.22815677650484
C          12.95449720151788    4.09609421242707  -11.45756089598933
C          12.06122575086470    4.11038258286344  -12.53949280304204
C          10.78515154295199    4.57770793330617  -12.37679118422528
C           7.36859514061256    6.53406047690077   -9.27201057389892
O           6.38775756182694    6.68341001697561   -9.96803968090508
C           7.51630849785542    6.84562128008960   -7.82393175894162
C           6.55137471562720    7.28827884303436   -6.97311407180789
C           5.20523147126056    7.67890971311566   -7.22076661373906
C           4.64117869046162    8.23210907451155   -8.33625145883762
C           3.30854299657551    8.68696542051313   -8.00063662697524
C           2.42510810053004    9.28383510031876   -8.91229066258597
N           1.70835997812352    9.78725255913468   -9.65308558035679
C           3.07027795076013    8.46025888969996   -6.67065472778692
C           4.21312430554836    7.78331306842100   -6.12339511136507
C           4.33315574242251    7.21712824988748   -4.88107973851119
C           3.59650008426692    7.55978715718702   -3.63770564159056
C           4.00187203608657    6.67869878915851   -2.67582866404426
C           4.95179544992646    5.75473028539658   -3.25387765365182
C           5.18100638842441    6.10418323373188   -4.55746922299963
C           5.52191528717940    4.67243836679986   -2.56880991405102
N           5.97492730505851    3.78100470994704   -2.00612687974693
C           2.75467841406755    8.69742819287952   -3.46754743878253
C           2.06335453740557    8.97645278920680   -2.34002004166858
C           1.23277088460723   10.13864317945564   -2.20189800095516
C           0.71236758548544   10.52496968979263   -0.95063300997936
N          -0.11760704800191   11.52814721600072   -0.82036019544908
C          -0.46471498975669   12.22484734906178   -1.90814059068395
C           0.14274887452481   11.91103343362885   -3.13976089053129
N           0.94800156761687   10.88834814842286   -3.27546607186479
C          -1.38158185248158   13.32299954500140   -1.72353513320099
C          -1.37595557859784   14.13596840760698   -0.63441824312224
C          -2.33467239800219   15.20347727163291   -0.85116596006358
C          -2.62709801897992   16.20402135888378    0.08615042425275
N          -2.85867339742350   17.02087470020967    0.85796402148848
C          -2.89950646542685   15.05371738241876   -2.08681878753210
C          -2.37376441924232   13.85161429828089   -2.68106012719349
C          -2.86124594881344   13.22868700720472   -3.79922263825789
C          -3.79438025154030   13.79769198798035   -4.79883999394469
C          -4.23887155738483   12.76520695861143   -5.57582157455464
C          -3.60551701565777   11.54296751930733   -5.13162208023573
C          -2.75372159737786   11.82542966745531   -4.09789368660702
C          -3.84248597374944   10.27462211051460   -5.68169245124384
N          -4.03295295085829    9.23633987571648   -6.13109043834818
C          -4.07920465144065   15.18300938200214   -4.97805256480756
C          -5.20210336021536   15.65384015389388   -5.57952639578519
C          -5.44198844152157   17.04117182837035   -5.72142510967582
C          -6.59213001897968   17.58621779176404   -6.21491968140200
C          -6.89767979945582   18.99988744046102   -6.34885426385258
C          -6.03470117486223   20.04904199658798   -6.16276697393544
C          -6.39074603314788   21.40440506509326   -6.32885910085295
N          -6.61302485657337   22.52435372382598   -6.44797588644150
C          -4.67472789763465   19.93888329476912   -5.80560070211761
N          -3.56190388475619   19.92983648111198   -5.52096955174822
C          -8.29395069619630   19.11556993021672   -6.75394182236160
C          -8.82654557434969   17.80714993845240   -6.93616780230648
C          -7.78798559736327   16.80749884569468   -6.63955889631812
O          -7.89852015537730   15.60178937543471   -6.71853078190807
C         -10.12182830159779   17.60049680338709   -7.31490031782203
C         -10.96395089503787   18.71462505328819   -7.52659524604610
C         -10.44124050220157   20.02724300408364   -7.34083108049570
C          -9.09405175433050   20.20995810224990   -6.95340366788903
C         -11.29210938616244   21.13219972038670   -7.54759225454854
C         -12.59640367407324   20.95117933238047   -7.91962992520722
C         -13.10966550766590   19.65837353097670   -8.10284688840206
C         -12.31070789849752   18.56385982569105   -7.91114807415654
H           8.33149925330020    5.55270460999948  -11.74962670336448
H          11.55377203113095    5.48003418690865   -7.94648928379164
H          13.24432671995734    4.54053680217083   -9.39218122463441
H          13.95733599559503    3.72375782104638  -11.60334049106106
H          12.38929449616409    3.74884960474316  -13.50247191624454
H          10.09310711890164    4.59070957731884  -13.20600649539757
H           6.83261278368396    7.37265090728348   -5.93177678789441
H           5.09472040724880    8.35685207162670   -9.29989600762352
H           2.13775626041154    8.62818119552922   -6.16695455916449
H           3.70991766896931    6.65640873289612   -1.64338268493037
H           5.77994625112047    5.55151460457967   -5.25540645086149
H           2.67822083860701    9.40238913244350   -4.28170115776821
H           2.11813139627763    8.33031806521432   -1.47634464368295
H           0.97518417891105    9.99611522254056   -0.04470952064954
H          -0.03043159980860   12.51138872153152   -4.02338526426274
H          -0.75608734876281   14.03513650136826    0.23559429157757
H          -3.69137261269601   15.65429723176424   -2.48924478424586
H          -4.90842221972933   12.82559441043784   -6.41265603593304
H          -2.19905175963703   11.10477516355758   -3.52958261488884
H          -3.34462509890493   15.89107512696738   -4.61463959986547
H          -5.96344710179462   14.97073746098405   -5.92387338964024
H          -4.65430372812213   17.70235476504160   -5.38201999459478
H         -10.50015242489068   16.59762556470946   -7.44702875896184
H          -8.73136354840957   21.21635476114188   -6.81768878086533
H         -10.89237592606624   22.12557257631910   -7.40587034632265
H         -13.24039863176790   21.80376415309756   -8.07467732673600
H         -14.14133408122976   19.53410323330243   -8.39609350097361
H         -12.70037351423133   17.56604814101684   -8.05027140898024
