130
 SCF done       -213.712283467514          0.000678226548
C          -6.87851514953030    5.26427946135475    8.94846137628800
C          -7.03238652197857    4.89349629867730    7.63096173915009
C          -8.13814344567859    4.17786314648618    7.13646671801283
N          -9.03296839497532    3.62574084643391    6.67407608249177
C          -6.02180470386844    5.07133404294222    6.66942830539060
N          -5.17866333167412    5.13348383700209    5.89036537412406
C          -7.68071525360506    4.78216089612839   10.06819593646667
C          -6.97638078323311    5.06072422822332   11.27587589908639
C          -7.46283374934287    4.68103872788788   12.49181284003476
C          -8.70386006382090    4.00538878783245   12.55842384312174
C          -9.41737302070802    3.73505691629545   11.35606641702739
C          -8.88286249261185    4.13125749668423   10.10713295565741
C         -10.65359377940905    3.06378843964672   11.43651332143349
C         -11.16192002963919    2.67413778220670   12.64610266813098
C         -10.45848493206603    2.94009930821181   13.82948177823310
C          -9.25531170237958    3.59169190634880   13.78622756764479
C          -5.73150836450577    5.78576523364603   10.95412798877819
O          -4.86892577403493    6.16287520273672   11.71968647864235
C          -5.77220152188361    6.00436722886038    9.48919606236446
C          -4.82629333203256    6.81239356556484    8.91701339542223
N          -4.81118292026106    7.46609423673501    7.74021136525023
C          -5.92316958905564    7.81147962358423    6.98820054694767
C          -7.23357005457004    7.77649397302914    7.38105672818213
S          -8.30374463771731    8.24417402000347    6.12580179798692
C          -6.99063814093639    8.54323697994758    5.05590859722685
C          -5.78384310305204    8.28743971998778    5.63777040500389
N          -4.53578655308185    8.52147464873492    5.10159457555348
C          -3.52685190709146    8.79154632352532    6.09734604546147
C          -3.50995422649248    7.66000415825259    7.11930660154500
C          -4.32278416974608    8.55635997524153    3.74671234490214
C          -3.23019709680442    9.01561960688159    3.11512366705410
C          -2.99737631392447    8.96138929390470    1.68845816716186
C          -3.90499582674322    8.47035124909233    0.78241800466387
C          -3.58928660979433    8.40446238823515   -0.59207550212519
C          -4.30470911850779    7.93742627966757   -1.68258697567541
C          -5.69998512180864    7.40151016685004   -1.73510214905089
C          -5.83712458930324    6.09121750056522   -0.93986763533744
N          -6.97249587241198    5.33429296858264   -1.43892568561054
C          -6.70722488791144    8.46825697365199   -1.27176165542700
N          -8.07575078434509    8.05615965924347   -1.55434055611784
C          -3.43610184253644    8.04647661578879   -2.83005120503719
C          -3.60084142288810    7.66892822910465   -4.11098520266560
C          -2.51652268200596    7.82329237299419   -5.12342583224236
C          -1.28595634469089    8.50731743410174   -4.61310087947210
C          -1.13488300678006    8.87851801658682   -3.32899415929640
C          -2.16756468509802    8.64535006124208   -2.38959545676768
C          -2.27284774553114    8.85718932647583   -1.03237615785733
C          -1.36682004968795    9.38796268515937   -0.08395440964396
C          -1.72466387173365    9.43869872423821    1.22122366386734
C          -3.04522903434387    8.53358486804989   -6.34599248089065
C          -3.13256984520815    7.93845217457143   -7.53351244560964
N          -3.63327211315913    8.47939979054997   -8.69983075708930
C          -3.33843660292896    7.93646467286339   -9.93400709011407
C          -2.46673956310590    6.92132752501080  -10.20728555333461
S          -2.38989314253855    6.55783496800044  -11.88800297898117
C          -3.52779815868085    7.78502998537493  -12.25067956240485
C          -3.95030441444716    8.44429799685442  -11.13133222062286
N          -4.88478148782835    9.47281840353803  -11.07524899200920
C          -5.45560639351025    9.69446923278903   -9.76298159197933
C          -4.34374807192646    9.73685752332957   -8.71409459370604
C          -5.24647583190097   10.17132347053472  -12.16561486101968
C          -6.24097722918844   11.10066033068918  -12.25774638269072
C          -6.47814704926378   11.76906604706107  -13.46796938576689
C          -7.44742070735746   12.72338446740564  -13.66180461525391
C          -7.73705012243483   13.41934698296106  -14.89413739654726
C          -7.11350852032242   13.25897015082269  -16.10884661011846
C          -7.45396585772085   13.97293929076380  -17.27475084105667
N          -7.67729547307517   14.51595955705134  -18.26229009660501
C          -6.05601119819565   12.36882920871792  -16.37747502632187
N          -5.19402428265106   11.66960724875203  -16.67740808670607
C          -8.83778291994665   14.34408033983373  -14.63327683905653
C          -9.22084643666421   14.21854017649911  -13.26790468872894
C          -8.36738417800515   13.20806477719495  -12.61476884713099
O          -8.42316861658979   12.86515008695459  -11.44666121060877
C         -10.23212719294665   14.95961421910243  -12.73073128749185
C         -10.92258994968490   15.88135254285629  -13.55036199004638
C         -10.54399449421607   16.01556552139503  -14.91628815057461
C          -9.49110812314222   15.23238293357131  -15.44449304774673
C         -11.23682090239151   16.93878392179024  -15.72508081352509
C         -12.25615714250034   17.69352585230639  -15.21145232103522
C         -12.62912512878365   17.55957972648917  -13.86613976003791
C         -11.97618199784441   16.67280023933985  -13.05342220916378
H          -6.90893953064108    4.89103572250120   13.39477434184379
H          -9.44415037654385    3.91690719180469    9.21089280422630
H         -11.19048352526445    2.85904982349245   10.52176587496876
H         -12.10907153423307    2.15803444258188   12.69666811625835
H         -10.87369615002324    2.62666761936972   14.77574406106107
H          -8.70881904735588    3.79920891715286   14.69478044097795
H          -3.94864314939162    6.99257010001861    9.53391873523539
H          -7.63683979444006    7.54359192488743    8.34429518228176
H          -7.18924364309974    8.90161231579598    4.06751515772257
H          -3.73750516081346    9.74704420555046    6.59728346269509
H          -2.54839706357400    8.84779706711755    5.62349446912395
H          -2.77286425590284    7.86347558300291    7.90034472228065
H          -3.23670595846815    6.72749486223578    6.60813781098561
H          -5.14596066196356    8.13511945179942    3.19058384882910
H          -2.42331961919163    9.45499392660280    3.68605949510246
H          -4.86424692055158    8.10772291428386    1.11425924392057
H          -5.93874530928298    7.15286665031126   -2.77427191841427
H          -5.90365428727729    6.32154368332179    0.13522011765668
H          -4.93590435681746    5.48769814099803   -1.09386863135188
H          -7.80477650749199    5.91297067964775   -1.35590229395061
H          -7.10958283980321    4.50006000821586   -0.87763804342844
H          -6.43980705726116    9.42498847857844   -1.75381419650728
H          -6.62524831632625    8.61214102474934   -0.19206315145232
H          -8.20969288069687    7.96758577496509   -2.55705912170776
H          -8.72962028510399    8.75430468616669   -1.21549162788132
H          -4.51756439262864    7.21536815737387   -4.46417021701986
H          -2.23092233568255    6.80589741301432   -5.43600207579735
H          -0.50945376236065    8.67829937570355   -5.34369449590528
H          -0.22305008601824    9.35507914859160   -2.99749053857010
H          -0.39868651225738    9.73964260177913   -0.41088434370933
H          -1.03694588791361    9.83805771936449    1.95415225316332
H          -3.33351839796705    9.56016237687781   -6.18345938315068
H          -2.80695972659527    6.91414305617454   -7.64651269693671
H          -1.84898404383301    6.36472398993202   -9.53461470778650
H          -3.82875786475059    7.92973743576657  -13.26774236342476
H          -6.15147164509888    8.88116090875321   -9.52408103417265
H          -5.99733246174879   10.63845412156861   -9.75439133809449
H          -4.78825670599357    9.89948145683797   -7.73156044505202
H          -3.66173883646791   10.56974469304457   -8.93536783967210
H          -4.65957885090929    9.95686009021319  -13.04892374633661
H          -6.87945671032320   11.34627874846358  -11.42542330706644
H          -5.84475448347175   11.50072607927836  -14.30318311217760
H         -10.50390570230025   14.84484678798003  -11.69165204633770
H          -9.22982988240959   15.35856540349617  -16.48304209577604
H         -10.94581387749511   17.03780010676939  -16.76073318378123
H         -12.78084040521723   18.39803706685943  -15.83956647111199
H         -13.43616685838977   18.16236378276292  -13.47670160992167
H         -12.25902063552693   16.56544348781243  -12.01613716526408
