126
 SCF done       -216.194659763924          0.000659973717
C          -1.95438020724104   -0.39953513002179   14.29369745401924
C          -2.78819723140518   -1.48824171761117   14.30704762999454
C          -3.21547577939817   -2.13356482507608   15.48321159698280
N          -3.57865535764190   -2.70056899971342   16.41336084732507
C          -3.38928183740059   -2.00695919008304   13.14221414370560
N          -3.94158012156339   -2.40914922121558   12.21933645096157
C          -1.56282903924383    0.38216037564773   15.46135970977170
C          -1.16710159489235    1.68023754861846   15.02255066331502
C          -0.79328823608585    2.65133876887930   15.90558243039871
C          -0.78744206790012    2.36049733892169   17.28884185685957
C          -1.16511829923769    1.05998357044102   17.73156441311889
C          -1.55525765634324    0.07507317269827   16.79456285180260
C          -1.14918195630230    0.78238901570846   19.11333660656572
C          -0.78250639508364    1.74251070450593   20.01675187786662
C          -0.41262779876655    3.02317528499285   19.58018115792507
C          -0.41511662641267    3.32529220648744   18.24541189514546
C          -1.23190070320958    1.73717117953242   13.55056016172496
O          -1.02154223578645    2.68563397296807   12.82733372472169
C          -1.55660265037946    0.34951947892642   13.12244235267559
C          -1.36377209502155   -0.01687818763381   11.82514442370199
C          -1.19598613271539   -1.31085271101543   11.28055051045258
S          -0.58866731798257   -2.63037090020453   12.24430343467594
C          -0.57390862060967   -3.66783837663365   10.86605589779492
C          -0.12812590194112   -5.05640002090883   10.98158463545250
O          -0.05891778824841   -5.83153940940334   10.06019558354098
O           0.19471991432053   -5.35740233689140   12.24768201513490
C           0.63030109378739   -6.68751938074628   12.48090643622597
C          -1.01966909855684   -3.04296859866023    9.73623569972675
C          -1.37350896370287   -1.68991208464335    9.94024987671773
C          -1.89672322628327   -0.80605290656521    8.94442194009424
C          -2.24375135275702   -1.17087400251983    7.69151728306309
C          -2.78610252392711   -0.30521200809689    6.67764435744760
C          -3.31076615090635   -0.87086461405832    5.53397777900276
C          -3.88854445323846   -0.06330826918812    4.53692113057631
C          -4.49552838024184   -0.38880777484038    3.32922244276709
C          -4.69263336903880   -1.75915876172383    2.78122567110555
C          -6.19729021266246   -2.08305444800818    2.57648329549379
N          -6.51231799654515   -3.48957075907199    2.49239160668879
C          -3.88741748387186   -1.95978283464952    1.48616708953651
N          -2.47433117295757   -2.01344985775390    1.81600935199008
C          -4.92194936273523    0.85420171624804    2.72755750964286
C          -5.58231248444609    1.12898277512268    1.58591773092154
C          -5.99383746242628    2.51595964046806    1.24032353526936
C          -5.41974122005642    3.58189745483300    2.12115603507398
C          -4.76096656196604    3.29518164003769    3.26011707398667
C          -4.51408175028776    1.95134279208491    3.62271186011518
C          -3.89758409646113    1.38127481671754    4.71692888148403
C          -3.32782661931371    1.93932092671674    5.88492769827842
C          -2.79866816467188    1.12260154414426    6.82844221994335
C          -7.48322716671534    2.63234066521957    1.45791946749463
C          -8.30445363025918    3.28681350731734    0.63016951678206
C          -9.70215852921112    3.47624119337222    0.87491555455654
S         -10.34646863096881    3.24254164427476    2.46776307861392
C         -11.91442685395678    3.77550496249694    1.95874901124110
C         -13.03546284765422    3.82280733399286    2.89471898195020
O         -14.14548199179360    4.20156097517710    2.61362985501861
O         -12.67107319910609    3.38940482816707    4.11159644290647
C         -13.68643623797863    3.39329877016724    5.10298744380792
C         -11.92889295746815    4.12151659800680    0.63962094672658
C         -10.68294112512062    3.93736004400734   -0.01112904275894
C         -10.54345384546999    4.19172787849147   -1.41205045203508
C          -9.59542737675206    3.68864922832607   -2.24180089713572
C          -9.54470933096847    4.03775577381865   -3.61099868445806
C          -8.55775875713244    3.64667373143100   -4.47234518421211
C          -8.48122827359735    3.93430507425474   -5.89277473674707
C          -9.35084103635467    4.69572456793391   -6.63083500588618
C          -9.21264857969117    4.93901484476742   -8.01349010735310
N          -9.16273143673507    5.17761081194981   -9.13558539574954
C         -10.49381346669547    5.35701451108709   -6.13579305793384
N         -11.43616538458065    5.93093052654437   -5.81541670467399
C          -7.29317706899057    3.26849180963254   -6.41662359208012
C          -6.62306909812297    2.61878618476115   -5.34116310278102
C          -7.36614477193991    2.84956166824987   -4.09093854701471
O          -7.03949233042357    2.47776437643951   -2.97905744023840
C          -5.47145882865679    1.91082196243510   -5.53104655700923
C          -4.92832810475791    1.81229918151804   -6.83153477723469
C          -5.59405366682602    2.45676578402648   -7.91341878087307
C          -6.78308374168792    3.18680940989869   -7.68521119446622
C          -5.04618063307514    2.35092421660041   -9.20791162740789
C          -3.89599942756742    1.64235802581175   -9.42547470737418
C          -3.24099886429004    1.00819245301585   -8.35933419799172
C          -3.74594903794973    1.09163499806219   -7.09008183341701
H          -0.50687598772502    3.63182461658718   15.55499295355708
H          -1.83050721611009   -0.90442016063627   17.15376375952567
H          -1.43825114938708   -0.20416733093543   19.44484190921212
H          -0.77642995657707    1.52052556720294   21.07345138723268
H          -0.12577780613200    3.76902267774742   20.30642628701228
H          -0.13119752974204    4.30988212885955   17.90330493213174
H          -1.22933291812090    0.81487852253287   11.13954122701788
H           0.85252496728580   -6.75141844520510   13.54273094458723
H           1.52031898020310   -6.90415836139631   11.88634174385676
H          -0.15525058735904   -7.39548871097698   12.20903222981514
H          -1.07176294008576   -3.55694277847254    8.79433812641441
H          -2.04444114342058    0.21570958012088    9.26036457176225
H          -2.15478719762117   -2.20999368977433    7.40437277621325
H          -3.29047537460313   -1.94419915709529    5.41014096657314
H          -4.29608322359822   -2.47543484426827    3.50926562492625
H          -6.55861759226108   -1.61039538914913    1.66074295247342
H          -6.76088445694853   -1.66959318114353    3.41718813288217
H          -6.02071028462215   -3.92925099963631    1.72247609656224
H          -6.24982278005821   -3.96933628403611    3.34629058758876
H          -4.14213137232843   -1.16291736614108    0.76829273328322
H          -4.15120322871508   -2.92042508961566    1.03148763140925
H          -2.18781111292337   -1.14487475569934    2.25652529712178
H          -1.91386154490756   -2.14310921032175    0.98131240038725
H          -5.90735404314573    0.35991030309910    0.90055433296478
H          -5.77825191028694    2.72314422094836    0.18574933433314
H          -5.62308749006218    4.59927128243532    1.82552401803852
H          -4.39248917436141    4.08513714515117    3.89851730973509
H          -3.32265562189330    3.01171400927286    6.01371263385988
H          -2.35734384066018    1.55240922850898    7.71337427738473
H          -7.85516313409623    2.19326251479862    2.37349758644689
H          -7.91072628049102    3.72132409561145   -0.27739221935936
H         -13.22686202868707    3.00582325700908    6.00828526447563
H         -14.52079169099830    2.76083845019832    4.79292366365986
H         -14.05588132907755    4.40840873831364    5.26239825571217
H         -12.81736369739432    4.47356769015349    0.14654362050063
H         -11.30957816574766    4.83047189921689   -1.83701183899575
H          -8.86140120205836    2.98516428360752   -1.88532086603643
H         -10.34735199441561    4.66174292876725   -3.98208509987421
H          -4.98081194432745    1.42834023167587   -4.69848844972582
H          -7.26188155374482    3.66214289774176   -8.52621127595450
H          -5.55422483011218    2.84147085182086  -10.02519256962009
H          -3.48445833090650    1.56660701930421  -10.42075528729074
H          -2.33444544379123    0.45303331161668   -8.54886243952378
H          -3.24555385576681    0.60506216272538   -6.26542102540223
