112
 SCF done       -210.406561877707          0.000776021508
C          -1.09384321617370    4.79472059216432   -8.01023281614718
C          -1.68804529816424    3.88240648298733   -7.17733194716585
C          -2.58647444358963    2.88916132169838   -7.61765149198139
N          -3.32732042527185    2.06865998813611   -7.92628256011191
C          -1.39403300763686    3.77240338506402   -5.80395012726608
N          -1.14954029985412    3.62297920676049   -4.69239081488826
C          -1.16574184308859    4.77449126114943   -9.46757763047575
C          -0.06578230926099    5.51885072650579   -9.98628598420412
C           0.14815537333099    5.64075122402667  -11.32886470792453
C          -0.74915071552189    5.02252368793781  -12.22874723416707
C          -1.86002849335987    4.29167203124646  -11.71662598399399
C          -2.05351165188309    4.17660555711293  -10.32065099674188
C          -2.75115827296089    3.68564852040520  -12.62525781875429
C          -2.55465819848036    3.79222548139900  -13.97519090759918
C          -1.46021311412055    4.51107831686169  -14.47853694259487
C          -0.57671568280896    5.11283737779041  -13.62397497855589
C           0.70631517140008    6.08899430437468   -8.86891910237362
O           1.73185248865363    6.72839901648807   -8.91552127407047
C          -0.08031865777373    5.76180955463021   -7.64316000574232
C           0.18922272620168    6.43048601665963   -6.49157138756116
C          -0.62081843298586    6.58138863078934   -5.33831125888010
S           0.10211216156807    7.03510186784442   -3.82241926616132
C          -1.42645151526744    7.07335020477948   -3.01666052354528
C          -2.44434960635664    6.78431660225375   -3.91418039813359
C          -1.99080760771735    6.50064005441713   -5.20834174809669
C          -3.90847928581618    6.83708174631067   -3.62075567800382
F          -4.39505397127927    5.69569994180857   -3.09623724080210
F          -4.24482935595271    7.81809903810731   -2.76744916805902
F          -4.62382880264952    7.05516025280010   -4.73746628675212
C          -1.46178641865729    7.36986578468152   -1.60275050009868
C          -0.51692919543277    8.21731498433839   -1.07533835967754
C          -0.51123480375751    8.49302869598233    0.30593581594871
C           0.33862697244035    9.27795735206037    1.06867396122760
C           1.49163121703780   10.07860308278269    0.56530219204607
C           1.47741589233000   11.53069364245571    1.07786009850733
N           2.03752824507518   12.40271736822347    0.06281376308957
C           2.82103463490527    9.37235610604591    0.89409913715965
N           2.93701182924489    8.17543619921124    0.08386207754001
C          -0.09339067876431    9.13771465633295    2.44171177333270
C           0.40590492272453    9.62225884009667    3.59269610908459
C          -0.21256977482308    9.31937758911096    4.91171949311550
C          -1.43967294592800    8.45669139157646    4.84491125120465
C          -1.91820462288955    7.96748420335092    3.68735572096445
C          -1.27467736459442    8.25814076369770    2.46058099958696
C          -1.51120914510279    7.86413713453405    1.16039411991904
C          -2.46251532736371    6.98979278643230    0.58424294461705
C          -2.43471403064030    6.74885082866676   -0.75015703465969
C          -0.54960267025351   10.57400186687968    5.67413323088354
C          -0.77308883570551   11.75426981141920    5.09004150902464
C          -1.10088006786390   12.96456583108369    5.78826199535785
S          -1.29702261978086   14.43659406881980    4.89556393383145
C          -1.55363540217797   15.36620603149709    6.34009902941762
C          -1.52883707286694   14.53477086764912    7.44469929529587
C          -1.27701679095186   13.18991480373492    7.13304529512990
C          -1.88253693588208   14.89185863070081    8.85443723620707
F          -2.28242878373802   16.15618940047680    9.03907524333365
F          -2.91439300871267   14.12443956326812    9.27606030287062
F          -0.89151167877552   14.66087495966103    9.72289947346235
C          -1.76900248396140   16.77565102133158    6.21273830541248
C          -1.20657156557722   17.72238733959151    7.00165253635431
C          -1.46778959347608   19.15256393057410    6.99668514575371
C          -2.48709445577110   19.78710250933922    6.33941270775261
C          -2.71775460081043   21.17850104883946    6.39272565864729
N          -2.95108624776229   22.30210503663149    6.38764901266460
C          -3.44854396324669   19.14564433009772    5.52996519309265
N          -4.26350455648418   18.68885831145657    4.86297356463101
C          -0.49343706543911   19.78167208335621    7.87782001034931
C           0.34255399699153   18.77208842896813    8.43708876086031
C          -0.06019254755755   17.45695079848474    7.92289412534364
O           0.47682413809375   16.39065813617882    8.12381295090194
C           1.34793085082321   19.06864744099213    9.31238069485274
C           1.56531754513751   20.41470659880106    9.68041435541440
C           0.73788651175055   21.43209214388088    9.12163483814510
C          -0.29218616745143   21.09508215484560    8.21450541705429
C           0.96689002967863   22.77293578435949    9.49283825058590
C           1.96257104761697   23.09478431123812   10.37444910224043
C           2.77546851519190   22.09224623046284   10.92479184477995
C           2.58089328921244   20.78078540764180   10.58554512700274
H           0.99194186153095    6.20250999979987  -11.70111496783801
H          -2.90790928365304    3.62560641289269   -9.95953615439777
H          -3.59060162267281    3.13071549646354  -12.23284194906272
H          -3.24171580728517    3.32245190268483  -14.66301453298762
H          -1.32073332852359    4.58578996927172  -15.54660240330407
H           0.26788424693856    5.66771348397282  -14.00561667475669
H           1.12847288331540    6.97509593585287   -6.48613118166607
H          -2.65532275683489    6.29883042372209   -6.02976219737342
H           0.22152796093499    8.67535635879806   -1.71692377571986
H           1.42193331283802   10.13200661179780   -0.52431790261852
H           2.00801749037078   11.59389359181732    2.04373011045558
H           0.44217751109465   11.84513321521950    1.23987808709785
H           3.00560487319530   12.16280526701390   -0.12084742044026
H           2.00419133658830   13.37110462079433    0.35984971441447
H           2.86823604087401    9.17776755840942    1.98049358328324
H           3.65730081437892   10.02676531923188    0.63041002173177
H           2.17419877445199    7.53787025781481    0.28717875916603
H           3.80938332986439    7.69448736682451    0.27020007770232
H           1.28407179790589   10.25156601993300    3.61995939362875
H           0.54285436302259    8.77983811321141    5.50744631373016
H          -1.92293441494244    8.24837608695794    5.78671372316938
H          -2.79839220113934    7.34143675532522    3.67919472048915
H          -3.19129655423087    6.50349440634641    1.21474969427777
H          -3.12579949802067    6.04359879338156   -1.17952813055432
H          -0.64587299172974   10.46086013887496    6.74367679575276
H          -0.69707600607076   11.84455887768459    4.01452084342280
H          -1.23293054893532   12.42276807103443    7.88404932563525
H          -2.38852440596862   17.07093519059132    5.37514204877760
H           1.96468444483091   18.28297502129783    9.72265206689618
H          -0.89756666622156   21.88845202336957    7.80579209100303
H           0.33765564292993   23.54107970668788    9.06789408832427
H           2.12949081508682   24.12439474303674   10.65298867547407
H           3.55697039295470   22.36461996147318   11.61770247012242
H           3.20358626364894   20.00455961676509   11.00518325818413
