122
 SCF done       -214.754419949782          0.000953353459
C          -4.76207409331926   10.37849172590835   -8.00362792521653
C          -4.03628343481663   11.25862474902625   -7.23485831213488
C          -3.73221794706987   12.57931371604542   -7.61202809606579
N          -3.49205666662963   13.68079414972620   -7.83476876532996
C          -3.47736622245898   10.92488119038565   -5.99049977579341
N          -3.01345157978855   10.69298807506667   -4.96478586606575
C          -5.10247221672389   10.58630656947710   -9.40919745118889
C          -5.45613830080974    9.32873380454600   -9.97776605552224
C          -5.77945408078229    9.20269240179947  -11.29692758261051
C          -5.77586567401507   10.35229372528602  -12.12058181986375
C          -5.43981858746820   11.61508369449541  -11.55455300471074
C          -5.09966844129866   11.71295661296194  -10.18450433295557
C          -5.44496344474510   12.75402714740942  -12.38422374590901
C          -5.76236699574925   12.65258285483207  -13.71162414159174
C          -6.09090854358741   11.40840555616535  -14.26884238829420
C          -6.09759825319914   10.28284055099877  -13.48992625929724
C          -5.40745420313707    8.29522856341465   -8.92681622250188
O          -5.59940137476837    7.10496543417967   -9.04372414047933
C          -5.11056355684828    9.02724601046922   -7.66429911863846
C          -5.26485022384177    8.35248229007981   -6.48209840073612
C          -5.41289898874043    8.79840541437461   -5.16017094588101
S          -5.17560542567085    7.65291016738766   -3.86477139963676
C          -5.49305584960222    8.84664350205404   -2.65094252266690
C          -5.83068795029532   10.06147960692548   -3.23833375723112
C          -5.77505595050075   10.04885806968933   -4.64024414196793
O          -6.10936488729494   11.04922981995565   -5.49402601635984
C          -6.24819541901183   12.33694112258513   -4.98610291361324
S          -7.46813796371811   12.40083811814004   -3.62082236890795
S          -6.24636761704431   11.47357289740859   -2.26227774446158
C          -5.35937680216053    8.60846907719419   -1.26413904153978
C          -4.99798674011134    7.41772204880210   -0.72927578725923
C          -4.73916681128313    7.15007834779792    0.65549733364655
C          -4.82380590973403    8.12498291373193    1.62808894320527
C          -4.42930923953432    7.84599622278589    2.94946607919308
C          -4.34165795310356    8.66254516172778    4.06971357372830
C          -4.72784914334509   10.09125733596690    4.24648808560536
C          -3.64183978225764   11.05645375843300    3.71879925219609
N          -3.43734351677112   10.87995003481899    2.29375771633883
C          -6.08116273199735   10.45146555304115    3.60883097065097
N          -6.64561606797898   11.59338166084835    4.31123108022476
C          -3.73960493735696    7.86451795611728    5.11303519990198
C          -3.32057112418590    8.19690635853646    6.34703812482682
C          -2.61315204757704    7.21704324767617    7.22330608541402
C          -2.55716491983544    5.82572586682538    6.67563536065779
C          -2.97189197915807    5.51207617034895    5.43475050708055
C          -3.52924393771314    6.50531039945779    4.59255974071559
C          -3.94494916687259    6.50771775772662    3.27927543427600
C          -3.93494174078302    5.50710716148837    2.27648841578266
C          -4.31638351982946    5.82303231388190    1.01604585917566
C          -3.21634529985638    7.25130861291702    8.60173905185118
C          -2.64925607588393    7.91471248215166    9.61389497130962
C          -3.15105036396133    8.04082335563358   10.94862489049517
S          -2.24763882872991    8.99388009693821   12.07728073255823
C          -3.38973897896784    8.69392461613501   13.35128632635824
C          -4.42123109643847    7.87850804728345   12.89463769197012
C          -4.30004993605216    7.52385533215880   11.53543371237297
O          -5.14648640414214    6.74154911754347   10.80125637206043
C          -6.40151513201508    6.46416929126079   11.32257887731166
S          -6.29769729948784    5.67948534509305   12.98140778307716
S          -5.74910077793151    7.40112249992217   13.95006244681141
C          -3.23541387331779    9.23515368351735   14.64301959601281
C          -2.21980146467932   10.07188917556819   14.99399852116918
C          -2.09054698368404   10.60116917978868   16.29276731834053
C          -1.10566723193432   11.46876352007813   16.68307018937011
C          -0.92947640737563   12.04819966146720   17.99998992905599
C          -1.70448163298150   11.82871860596184   19.11124598559982
C          -1.47764141272608   12.43138529736837   20.36598066398183
N          -1.34797110686976   12.87789988855529   21.41606220170190
C          -2.83148257925311   10.98435452667894   19.17813835936215
N          -3.76161792352463   10.32492794786387   19.32000470940268
C           0.23591237452365   12.92614993064388   17.94882362693876
C           0.77361582617665   12.89200387727817   16.63107663003941
C          -0.03257572647878   11.98522098300677   15.79553811961420
O           0.15636141912228   11.72827276070193   14.62353373979012
C           1.87140090333450   13.62205523679384   16.27845012637107
C           2.49721163145650   14.43755907282201   17.24766365099104
C           1.96793484567830   14.47615667958322   18.56958728016606
C           0.82854283944881   13.70850595181648   18.90449659183993
C           2.60009628512486   15.29196227265409   19.52989775856890
C           3.70115020822270   16.03519999545706   19.20177721214722
C           4.22060620107478   15.99727465999337   17.89925257097413
C           3.63149948254574   15.21518361876601   16.94308106433044
H          -6.03380410301530    8.23807740267161  -11.71054155605689
H          -4.85170558192336   12.68289292223110   -9.78214379743063
H          -5.18827250920791   13.70980557278189  -11.95099759101002
H          -5.76095351916224   13.53121914827128  -14.33935543431251
H          -6.33851174603337   11.34562540900037  -15.31803973221957
H          -6.34988508603928    9.32168672648488  -13.91374663720813
H          -5.33362357323853    7.27403086548564   -6.60338069487875
H          -6.62893041197185   12.95394367568552   -5.79936715348397
H          -5.30133353752003   12.73447854947385   -4.60546731514012
H          -5.53627312984028    9.47247695242519   -0.63847939555360
H          -4.84246978039031    6.59018657554117   -1.41240356934180
H          -5.13516890835872    9.12467197302879    1.37998473983423
H          -4.81684109659683   10.28436470262238    5.32148456755945
H          -2.72371692684515   10.90969677277401    4.31318079381020
H          -4.00733274475565   12.07184535741822    3.88634177612209
H          -2.94049604577185   10.01497547632733    2.10933578981998
H          -2.89124158322917   11.64374504324375    1.91394607711099
H          -6.73736101485493    9.56534980813924    3.61664699749888
H          -5.91443268889404   10.75458253947505    2.57486047275336
H          -6.95491076918641   11.32326653599055    5.23961499630645
H          -7.44891491441662   11.95603253883811    3.81089821816534
H          -3.44292784580705    9.19331109944470    6.75012289932728
H          -1.57628514607684    7.58273488509133    7.31362744430520
H          -2.13154180634746    5.08134669473204    7.33103288358568
H          -2.88236121595417    4.50135430226001    5.06372260137337
H          -3.60524991773875    4.50916755850524    2.52586685172082
H          -4.29586240933782    5.07432463070676    0.23732686911876
H          -4.15069297437534    6.72822258937893    8.72562235026918
H          -1.71113473431283    8.43267532502825    9.45252693227157
H          -6.86618668422190    5.74201593060748   10.65235185857142
H          -7.02320911665647    7.36041618837630   11.42166878366935
H          -3.98732920028606    8.95497189454382   15.37152421886324
H          -1.48572808123887   10.35437304909860   14.25194261993962
H          -2.83519234478184   10.29348614793908   17.01558678717135
H           2.25744779841420   13.57794172113480   15.27074109687185
H           0.45368647746672   13.76212533041707   19.91406872943795
H           2.19628690789253   15.31814730928063   20.53142699618497
H           4.17807942979069   16.65705356465164   19.94455336551820
H           5.08973360749367   16.59070041425409   17.65735344681178
H           4.02697341196074   15.18166460592215   15.93830529224995
