124
 SCF done       -235.018939723967          0.000484839683
C          -6.30025641677095    9.96824992618216    2.58275127347822
C          -5.80100774130405   10.51086471158974    1.42425090276881
C          -6.07362737380457   10.02674306240113    0.13388145980370
N          -6.20078357479226    9.65413022159764   -0.94648603532340
C          -4.99623302459873   11.66902141951440    1.38956353626415
N          -4.39348276096000   12.64213147615023    1.30244856405807
C          -7.39808221886887    9.01034513755798    2.65756259091313
C          -7.94168473082060    9.05007191076619    3.97512453342193
C          -9.01614312707638    8.28765715716722    4.32980740276448
C          -9.59896705151453    7.42822051308775    3.37017631868499
C          -9.05184354704473    7.37423738105627    2.05570375568565
C          -7.94273712869025    8.18256988014761    1.71379241176800
C          -9.63936452537964    6.50869816780787    1.11115102740793
C         -10.71718451728423    5.73465196899951    1.44551158721225
C         -11.25585987225750    5.78925587425606    2.73934611487768
C         -10.70872635521388    6.61845253458310    3.68090242049511
C          -7.15690541906952    9.98955869514650    4.80020747169320
O          -7.35134210949011   10.31359604699529    5.94746934395906
C          -6.01809871252189   10.40609128702925    3.93067439876003
C          -4.89256982492264   10.93035436784099    4.50237025866422
C          -3.59982898426951   10.97436527227128    3.94530532614580
O          -3.31465137780953   10.33629254883681    2.79757691261324
C          -2.00451425326544   10.52055439294930    2.50222994314847
C          -1.40768217659017   11.27312128381907    3.49682125112354
C          -2.41659175964613   11.56883663994183    4.43637932549515
C          -2.31502836848683   12.32332510709978    5.66189567972572
O          -3.21120550114100   12.59446860421690    6.42175116324016
C          -0.86699141552740   12.79383490094985    5.99425363222166
F          -0.37144975042513   13.60855069699546    5.04820927222731
F          -0.80878822437735   13.44770228539875    7.15001051064979
F          -0.01773977120287   11.75288400585997    6.08364681258188
C          -1.55464158512932    9.97715071607716    1.27030567638807
C          -0.30161197953619   10.06669397572977    0.77173919992776
C           0.10905654803528    9.58799148642015   -0.52038157360031
C          -0.80644227452985    9.18742318816136   -1.47429660711519
C          -0.38666005295503    8.75580146873927   -2.74402736698713
C          -1.09017823251453    8.33402373559154   -3.87115268230122
C          -2.53964224107126    8.07122393305646   -4.09260896955938
C          -2.81267030906861    6.54818186460974   -3.97271981041746
N          -2.44977332212015    5.85640732583403   -5.19680481801872
C          -3.50796925383319    8.81945588868799   -3.16508641415652
N          -4.86588498530653    8.65803529964540   -3.65884730462654
C          -0.09846543722939    8.02082459470762   -4.87722683198865
C          -0.24228506738842    7.58367251375945   -6.14097458729806
C           0.94799718255231    7.26066145139402   -6.98623195818799
C           2.26858468284325    7.53616158278317   -6.34322800956266
C           2.38623720719753    8.00689180632384   -5.08865589682563
C           1.23129320604116    8.26377543506272   -4.31121245833705
C           1.04614668574703    8.72769406729885   -3.02518742134744
C           1.96580381180527    9.14479006058579   -2.03475273316467
C           1.50901335297221    9.56548333756497   -0.82923327912376
C           0.77647887906111    7.92043123493274   -8.32343179441264
C           1.56202735107667    8.90505490444857   -8.78001628942706
C           1.38760029218331    9.50971613555083  -10.06186479992174
O           0.40732423467818    9.12522169080370  -10.87965885111149
C           0.49276542630766    9.85132767338233  -12.02981244243679
C           1.55406906263556   10.72522939899988  -11.94890834107364
C           2.14820956722147   10.51937088689495  -10.67901457887537
C           3.29604914186527   11.16955177280187  -10.10155429761318
O           3.77940022321756   10.95924050507230   -9.01474691581652
C           3.94313060347740   12.24268031859378  -11.02582179014804
F           3.07333954469856   13.21842651594530  -11.34001969239539
F           4.99709538766768   12.81908114716166  -10.45757122940844
F           4.35753030155300   11.70979805185254  -12.18907128940157
C          -0.43606846401502    9.63430644582527  -13.08375810128130
C          -1.45072745047801    8.73629404903772  -13.02004503440970
C          -2.34452064550978    8.54655931208019  -14.10152093400271
C          -3.39124965140936    7.67141535282302  -14.10673227022218
C          -4.32163210641688    7.43757701515031  -15.19865855669001
C          -4.30678748457006    8.02778564745600  -16.43576226961853
C          -5.24089660931472    7.74997286988198  -17.45667631438643
N          -5.96264564559736    7.57064757732329  -18.33117797524283
C          -3.37284341763578    8.98517359495887  -16.88431757686730
N          -2.65757021619005    9.76649928496130  -17.32835827476492
C          -5.28870136234114    6.44116096870492  -14.75242326038865
C          -4.96582580366235    6.05474552195299  -13.42021638763430
C          -3.77645960655480    6.79472303353159  -12.96799339399175
O          -3.23584460374901    6.70162990178650  -11.88451429655932
C          -5.70354071702212    5.13024443161840  -12.73796756849127
C          -6.81987974634140    4.53681066210473  -13.36788726304880
C          -7.14969137170942    4.91734354673373  -14.70074683704476
C          -6.36767409294161    5.87781609293978  -15.38183075844044
C          -8.26546800664208    4.31956272523564  -15.32148002621969
C          -9.02055759746191    3.39054906107823  -14.65888760541440
C          -8.69533549783015    3.01701553952238  -13.34625198089680
C          -7.61850350953778    3.57771504141940  -12.71456802713722
H          -9.41900013889741    8.33880373388242    5.33030513260791
H          -7.54294389332875    8.11857906611552    0.71332403342455
H          -9.22288650203472    6.47179681554463    0.11504579546576
H         -11.16107014457883    5.07607201404695    0.71394133093166
H         -12.10586507268133    5.17113361102345    2.98670817657510
H         -11.11906247104275    6.66461473710168    4.67898365062675
H          -4.97808014772904   11.27083064478524    5.52733848898215
H          -0.38279721221512   11.57799377617042    3.52570061300948
H          -2.33446999729273    9.47800951639523    0.71277183911019
H           0.46513267366073   10.53552662764782    1.37362573562043
H          -1.85673788560885    9.23427710863182   -1.25140927138730
H          -2.78767385545089    8.35664394687373   -5.12154887838375
H          -3.87613297283631    6.43859372201635   -3.72026168795056
H          -2.21209771183897    6.14205170016757   -3.15507334977362
H          -3.15769271103282    6.01691796253405   -5.90621390138329
H          -2.38489802670297    4.85786779169103   -5.04005533113155
H          -3.19354331572813    9.87244350148014   -3.08463176353241
H          -3.48141516535133    8.36800182593433   -2.17086135465749
H          -5.00952809635401    9.22196134738746   -4.49048375967185
H          -5.52671434009007    8.97322575929731   -2.95567560825494
H          -1.21097474881965    7.43458114109161   -6.58998173715973
H           0.89013457280742    6.17385722120454   -7.17481891799854
H           3.13957416193376    7.31666873863349   -6.94131901632900
H           3.35991179998531    8.18517586563069   -4.65704835950915
H           3.02299180853523    9.12910614265564   -2.25413334125861
H           2.20059213369062    9.89119766822948   -0.06615382031890
H          -0.05183402143036    7.56795440601842   -8.92373910045098
H           2.38374596646352    9.28978199863969   -8.19540036597878
H           1.85622739476242   11.41666401487175  -12.70784635043588
H          -0.28933812243602   10.23813707572652  -13.96871169800917
H          -1.59060572447794    8.14340265211229  -12.12851760255362
H          -2.16263809330464    9.15103460930832  -14.98064662102239
H          -5.43748594007702    4.85450846646340  -11.72819482285289
H          -6.64591225149886    6.14390969780940  -16.38890379319195
H          -8.51172341819435    4.61066799193506  -16.33201847825841
H          -9.87316903373393    2.93827282015416  -15.14270360668319
H          -9.30241895684382    2.28267381026533  -12.83829103054431
H          -7.36350326926956    3.29364134836386  -11.70398952232878
