126
 SCF done       -208.470586316895          0.000759858236
C         -10.14035226487060    1.85998992139409    2.36009708086287
C         -11.37698988231207    2.39294533526604    2.63747079556954
C         -12.58526893720845    1.68025198565056    2.52449074653769
N         -13.60075858442792    1.14864268013243    2.44430396075847
C         -11.58424298666397    3.70401752117395    3.10898049693024
N         -11.81629988556974    4.75061579058124    3.52288386718596
C          -9.86862784181212    0.47818563573250    1.97824162522975
C          -8.45710545038012    0.29956138224285    1.92682025938985
C          -7.89487723523333   -0.89352777181234    1.58081043117377
C          -8.73582023830017   -1.98504974581493    1.26199767278303
C         -10.14843997607755   -1.81289101260991    1.30784998058238
C         -10.70222992827125   -0.56294157847676    1.67373033250142
C         -10.97599952177486   -2.90405772485101    0.97628505437464
C         -10.43648436985574   -4.10910959167839    0.61563820003524
C          -9.04523866124297   -4.27784596409456    0.57150807491371
C          -8.21322003295662   -3.23844555463925    0.88951074436641
C          -7.78625832929777    1.57287550103978    2.26024354044127
O          -6.58815772691980    1.78112342038488    2.24854306742200
C          -8.87806690684989    2.54320649373414    2.48203108665510
C          -8.70579365729854    3.91098847304290    2.49646573719847
C          -7.51461872978759    4.59270426055684    2.75917547199411
C          -6.42808005073490    4.27694092457695    3.60088908091607
C          -5.36331848118037    5.21670331432237    3.50317711447347
C          -4.20392472838466    5.03428032391203    4.27634229367242
C          -4.13275030631153    3.97424384936222    5.13934849740959
C          -5.21253109841072    3.08826720176132    5.28395495446488
C          -6.35043548755489    3.23307922549558    4.53677565175086
C          -5.63338363343165    6.26416944879558    2.59468155585236
S          -7.23138355995730    6.11343583022300    1.95492557457363
C          -4.74479551177754    7.27098426533874    2.16237656017722
C          -5.03355867639974    8.15281162132266    1.17030941149574
C          -4.13720214411566    9.08626335960714    0.56109031567252
C          -4.51022996519792    9.64602863599807   -0.64607648902391
C          -3.60179815456254   10.42195777982475   -1.38961457824802
C          -3.68413273102984   10.98876686339602   -2.65678976104673
C          -4.83260004708433   11.08018674154904   -3.60814500770015
C          -5.10322385135593    9.75360860296005   -4.35034944192445
N          -5.45649210050053    8.68072834434952   -3.43939918132951
C          -6.10700746066680   11.60568898215748   -2.92812321321083
N          -5.84899309302565   12.93091451954921   -2.38758835231623
C          -2.37944615090644   11.53876618081377   -2.94316465762031
C          -1.86783208323569   12.04778958401197   -4.07829911186722
C          -0.43049466072276   12.43050913631341   -4.18110291274861
C           0.29812678152944   12.44255963133824   -2.86931630577896
C          -0.21760020597752   11.89855121193734   -1.75294334868057
C          -1.53102450546482   11.36546046447282   -1.75618694256835
C          -2.27396771321872   10.66920937971423   -0.82919528779308
C          -1.95438444384285   10.16526395425515    0.45600285083150
C          -2.84907529201277    9.39455116840130    1.11903763398585
C          -0.28685356812063   13.71913268280868   -4.93747747985534
C           0.50008399072483   13.84635616893305   -6.01363972752359
C           0.60813290832144   15.00434905228606   -6.83753786111894
C           1.46635251563549   15.17537800408012   -7.93659627633667
C           1.23917476764262   16.39707199555386   -8.64249796935841
C           2.08047272462322   16.72690347638279   -9.72195284666513
C           3.06039865933665   15.85312865183470  -10.10745155587756
C           3.25366534908067   14.63175741787516   -9.43907280092931
C           2.48116629781500   14.29608406544549   -8.36367039891521
C           0.18184035037162   17.14893848608944   -8.08758956128654
S          -0.43004263904130   16.36515345706642   -6.65734881383819
C          -0.47324623237479   18.31706507785890   -8.51389449419941
C          -0.41431761769551   18.87273305962448   -9.76209415859025
C          -1.15807557265922   20.01353481792397  -10.10420121898697
C          -1.18745928022499   20.56622410396550  -11.36146976371629
C          -1.97155178889785   21.70324376652036  -11.79154477774149
C          -2.77985077595128   22.49630148955406  -11.01379181398587
C          -3.51548499741719   23.59505618089603  -11.50197441440236
N          -4.14159583197965   24.50032447534759  -11.83048774955958
C          -2.99322688611221   22.34649096401438   -9.62908699075247
N          -3.21521497992314   22.30034535518629   -8.50240110373988
C          -1.75527606280505   21.87780059450355  -13.22578649540918
C          -0.82773286366528   20.89227643701630  -13.66693632599042
C          -0.42556000581625   20.05397053122913  -12.52388602619630
O           0.37528137305988   19.13824162007608  -12.55226414367477
C          -0.43350398998077   20.80101752835869  -14.96986132937506
C          -0.96367624589449   21.70760354169996  -15.91522209463148
C          -1.89337151051075   22.69630352077749  -15.48363455859618
C          -2.27932820591571   22.76806609683197  -14.12459348517771
C          -2.41925178552437   23.59359730690332  -16.43498860272073
C          -2.04677249027669   23.51872004222226  -17.74965407661356
C          -1.13126386331828   22.54425507971748  -18.17336953108530
C          -0.60091009719291   21.65820158473161  -17.27522971822633
H          -6.82107377379718   -1.00466010130204    1.54645892430946
H         -11.77574948096934   -0.45899648069899    1.69124669046482
H         -12.04722741160752   -2.76912798563431    1.01233214907057
H         -11.07969518324749   -4.93860030175702    0.36188760149609
H          -8.63533177354544   -5.23462917671681    0.28351749157162
H          -7.14033531206412   -3.36221023367234    0.85644555515529
H          -9.54199318942461    4.52709011049069    2.18428647868356
H          -3.38624380414513    5.73445194241596    4.19931054469667
H          -3.24609738240588    3.82518657073204    5.73738815240402
H          -5.13996405964448    2.28547120700186    6.00221493782877
H          -7.18962871158895    2.57005068650834    4.67231375817603
H          -3.76771261303103    7.26777330463974    2.62306824757074
H          -6.01779556660462    8.09162865373733    0.71992667487621
H          -5.48013821857558    9.41543126136697   -1.05848164182168
H          -4.56651051853510   11.81827528409316   -4.37170497898452
H          -4.21679196784358    9.52094873722591   -4.96587899168872
H          -5.94877638115808    9.91215756479997   -5.02507568938860
H          -4.63341268226561    8.35975896525602   -2.94072730228928
H          -5.83626623548033    7.89270579854254   -3.95103638496478
H          -6.45342775409619   10.88056042796874   -2.18104666124378
H          -6.89003640765048   11.70635083843456   -3.68516494993890
H          -5.13408345442959   12.87699774282775   -1.66843043992547
H          -6.68908263957935   13.30818150671343   -1.96344190197786
H          -2.45767360377393   12.15957183981839   -4.97774934494973
H           0.04872566165463   11.64496332864856   -4.79299488454348
H           1.29167924409378   12.86344621135314   -2.88635994766825
H           0.35705270841833   11.87119652755023   -0.83833732109637
H          -0.98699740973925   10.38605232333627    0.88337937121236
H          -2.60329026626286    9.00256967386827    2.09371461525922
H          -0.87525781488125   14.55198219986912   -4.57918858636952
H           1.09727588689362   13.00072432003510   -6.33136533473349
H           1.97396864743204   17.66930007346536  -10.23093835694351
H           3.70489202602969   16.10602649813166  -10.93537191383040
H           4.03510542142143   13.96572233828660   -9.77257491789058
H           2.65340218485959   13.37308419789994   -7.83191464346657
H          -1.14245283007613   18.76859425068501   -7.78908053402229
H           0.16637263760281   18.40989819182816  -10.54158243637560
H          -1.75553537065930   20.46315517174457   -9.32155944440764
H           0.27181993513532   20.04292161242627  -15.27708041625510
H          -2.98646812218874   23.52788963003820  -13.83252833176155
H          -3.12410094345918   24.34233146492871  -16.10412459920880
H          -2.45620226353576   24.21034550445201  -18.47076836375719
H          -0.84850811813205   22.49879604718876  -19.21460947491467
H           0.10454576963192   20.90509563386370  -17.59533036405459
