114
 SCF done       -204.470046667171          0.000259640718
C          -4.41101120855196    5.99259196587227   -6.58686324260840
C          -3.09880725579363    6.17546684306938   -6.22376724999996
C          -2.17532579331185    6.94195228549722   -6.96172723908248
N          -1.37884464961072    7.56037284635290   -7.51082497626169
C          -2.49772964249004    5.54016356634412   -5.12286366240477
N          -1.97336579429085    5.02909067820502   -4.23728252554314
C          -4.98384216518512    6.38487555308046   -7.87201163847749
C          -6.17453551045213    5.63040753741293   -8.08361457507706
C          -6.90569875016693    5.75130914568171   -9.22923100609691
C          -6.47921660349215    6.65822552161771  -10.22652727745300
C          -5.30166249135087    7.43020666255534  -10.01129759414063
C          -4.55833722254462    7.27699435771697   -8.81724043263498
C          -4.89249130414422    8.33696838858614  -11.00942471046273
C          -5.60817578243268    8.47332011945089  -12.16790613521716
C          -6.76626794672537    7.71126119191835  -12.38012269287563
C          -7.19242951696692    6.82314560482689  -11.42991432420854
C          -6.42982237845622    4.78670642459229   -6.90152859707947
O          -7.31974152626456    3.98227203369302   -6.73526004935929
C          -5.38387000707223    5.17026025739447   -5.91419767040722
C          -5.53732349777519    4.79213954281823   -4.60936653603353
C          -4.93929946893996    5.33499619467358   -3.46140322702482
S          -4.99826103658707    4.47738673284945   -1.93143735268452
C          -4.11617194631866    5.69142545357508   -1.05797359562557
C          -3.81325576392531    6.74918015702257   -1.91686579972660
C          -4.27768618672911    6.53500758764437   -3.24041780267652
O          -3.97345192340214    7.57118725799486   -4.03589376312094
C          -3.27047197288004    8.44975935880107   -3.24477360489467
C          -2.79780859713346    9.64479783738555   -3.80798815755855
N          -2.41029690081391   10.63264169333499   -4.24303270372313
C          -3.13772547356026    8.00010076817236   -1.95710818174805
C          -3.73429586560346    5.52375209575998    0.30914644306183
C          -3.31346598556223    6.61072217967687    1.04480089105257
C          -2.77458338848917    6.41636714745871    2.32724885698494
C          -2.17702898205817    7.32419722400864    3.19154842958644
C          -2.07570389401671    8.79225908088996    2.94530957949898
C          -2.23166972053622    9.64373030882858    4.21640961813654
N          -2.92034520689642   10.87761525443594    3.88142503651767
C          -0.76755949113581    9.13671945648162    2.20129436775622
N          -0.82043795481913    8.62795585910038    0.84114036701021
C          -1.64987166668244    6.55269214641146    4.29208832928188
C          -0.85682390538343    6.88635270713755    5.32790256802062
C          -0.37094378293556    5.87537375435583    6.30749155625462
C          -0.91024100760536    4.49153102430141    6.09715073117864
C          -1.67785164279172    4.16495859309673    5.04252307484384
C          -2.03877797954475    5.14404225315696    4.08639116953889
C          -2.70527166814061    5.07234121342899    2.88248884166672
C          -3.24965041591426    3.99202186421202    2.14393420367264
C          -3.74310703325467    4.21453695387822    0.90193338429451
C          -0.67580040793379    6.31147637326765    7.71414554280191
C           0.19292441605353    6.18701688216991    8.72369306261520
C          -0.07609611829072    6.55600525172346   10.07674319621289
S          -1.51756752369979    7.38727525312622   10.59878776226958
C          -1.01341024556081    7.43440717750134   12.27946169555567
C           0.24133900130630    6.81355359402244   12.39704464928022
C           0.74905756229787    6.34187383132196   11.16701952267210
O           1.95264696623058    5.76034374323925   11.33151029069572
C           2.22339532251299    5.85500336862891   12.66878312115591
C           3.42902098239129    5.32892920466518   13.16177729005041
N           4.40767195323441    4.90481618969404   13.58220135401769
C           1.21952301675823    6.48573677701000   13.36587430958933
C          -1.68546207493425    7.98243586547736   13.37256935500653
C          -2.88665496840027    8.64573115057783   13.42828592432657
C          -3.50820139402330    9.19472087314781   14.61565640348101
C          -3.04687081816836    9.11929281585231   15.90621041724214
C          -3.71755139221092    9.66981849875190   17.01815600935232
N          -4.21181515484727   10.09107866216288   17.96498406540025
C          -1.85445933539967    8.48868399250432   16.31495033327559
N          -0.89732038168407    7.99779142586288   16.71970559008857
C          -4.74179470095246    9.85388483257633   14.19597258628057
C          -4.88310363360070    9.69983777772763   12.78593758818224
C          -3.73832780048947    8.93529258675013   12.27199373879935
O          -3.53562324293860    8.61135648622449   11.11149573398034
C          -5.94369544049911   10.22198366095782   12.10404068785797
C          -6.93197891222945   10.94058185013308   12.81431143117539
C          -6.79884641552160   11.09991784939789   14.22358364204918
C          -5.68931723389714   10.54425609397135   14.90282653143749
C          -7.78781911786203   11.82113477015833   14.92191132998631
C          -8.85788722822789   12.36145531752774   14.26121126822433
C          -8.98797555426679   12.20418664620019   12.87368276183618
C          -8.04568872633883   11.50812424220352   12.16544723338207
H          -7.79951443023082    5.16297542646360   -9.37516787418188
H          -3.67455323300497    7.87946276894697   -8.67577362962201
H          -3.99839733636302    8.91954010862792  -10.84225785455616
H          -5.28489513017186    9.16926798877782  -12.92760208776926
H          -7.31942674568087    7.83125131941962  -13.29974655957537
H          -8.08397381206693    6.23371049761606  -11.58759866195170
H          -6.27397098437317    4.01329417814031   -4.43930629992807
H          -2.60424488113651    8.50183258633654   -1.17407327001406
H          -3.36940739478941    7.60538916207772    0.63796339604431
H          -2.89899118633811    9.07638002450555    2.28283409293683
H          -1.24357358658005    9.81327888223425    4.67825180961994
H          -2.85732965015606    9.10985322499623    4.93679255459858
H          -2.37099784010103   11.42939846190771    3.23126987678283
H          -3.07695712954828   11.43825327387419    4.71116656532245
H           0.08795913508150    8.75100283819149    2.78231712053043
H          -0.67221073402475   10.22433965132048    2.13710912114064
H          -0.80601891080996    7.61265891128676    0.84778236330084
H          -0.01339722799788    8.94331022350435    0.31379618464260
H          -0.51862737938591    7.89923705837017    5.49027818476906
H           0.72564038445006    5.82328437607418    6.20832678767897
H          -0.62692711521224    3.76056528118656    6.83842851520598
H          -2.02140663572181    3.14995891257979    4.90570424368766
H          -3.24476814878219    2.99929401293977    2.56836973382202
H          -4.13498126480071    3.40051509084049    0.31007561444640
H          -1.67003162417076    6.69557219858313    7.89247471838201
H           1.17998696439155    5.77470939856978    8.55038995044733
H           1.20337036339733    6.67533141028041   14.42010102810924
H          -1.14566049542671    7.85769201839235   14.30278465117299
H          -6.02757397044981   10.09130393436174   11.03530871009814
H          -5.61841998403661   10.68436282944449   15.96959587745476
H          -7.68319408187951   11.93938419727498   15.99042601663718
H          -9.60970963193204   12.91332665718621   14.80510078562649
H          -9.83807678396951   12.63722961503026   12.36814062167749
H          -8.14085300035403   11.38380775165219   11.09660216389611
