130
 SCF done       -231.299811383916          0.000737088807
C           1.82828618009598    3.51346816793064   -7.35164317955007
C           2.85435730944203    2.62709555596206   -7.15368602970107
C           3.25444392354425    1.66054450776066   -8.09959044783780
N           3.62020349908154    0.84609446345865   -8.82160158737745
C           3.66359473783368    2.56345994245845   -5.99962507021001
N           4.37062385374634    2.44744054337722   -5.10223009808040
C           1.03549603806198    3.64025850691278   -8.56783157285694
C           0.15616125699214    4.75052007521281   -8.41934189966899
C          -0.70860111019363    5.12463118560405   -9.40758995372343
C          -0.73047245921683    4.39308336140153  -10.61605317480554
C           0.14421098894318    3.27927232143999  -10.77193074699653
C           1.02612687066203    2.91381939239030   -9.72857178894055
C           0.11442548289636    2.55716112950142  -11.98199922372774
C          -0.73634932143460    2.91694184933919  -12.99169692964993
C          -1.59726868463442    4.01352695191059  -12.83721640697224
C          -1.59400966804640    4.73610945532665  -11.67494181578145
C           0.37382597408230    5.38192824260849   -7.10938658330871
O          -0.21468708719857    6.35399131308237   -6.67626266644044
C           1.39405096475136    4.54525607558555   -6.42886900852225
C           1.71344493861725    4.60862837124203   -5.10523367037288
C           1.39471273281279    5.66173084802934   -4.21236193835970
S           1.14592963484261    5.30289269285585   -2.52411812280846
C           0.79394400511997    6.95952049997361   -2.14945226372968
C           0.84533961371091    7.75130713177480   -3.29809058516828
C           1.22588532157508    7.01309171816568   -4.44629054011217
C           1.57271207110202    7.68771066179553   -5.71280905224505
O           2.43557973574236    7.29050361724343   -6.46839830949998
C           0.85284359068933    8.96252441751500   -5.90810980090220
C           0.76588492728763    9.50397285292598   -7.18520872101311
C           0.10020696046885   10.69811033962044   -7.39434801755382
C          -0.46455169866936   11.37216384898367   -6.32173413743465
C          -0.36359893164632   10.85037871457541   -5.04538929052311
C           0.28381997520030    9.63769167717791   -4.82321720708054
C           0.37275353145539    9.13600541885433   -3.42779779513488
O           0.01250682967439    9.83221721608762   -2.49430206966796
C           0.56216064655302    7.30463530520997   -0.76970767831370
C           0.99965647260421    8.50491270990013   -0.26192311978171
C           0.84129516762374    8.78977534818572    1.10744539254237
C           1.18673670288652    9.91056595104836    1.84933614039456
C           1.75106140523583   11.20253256556166    1.36768846556376
C           3.14982063552607   11.02441981563770    0.74513458178129
N           3.88276410633938   12.27090256731079    0.86289703780048
C           0.77136341008594   11.87613435664334    0.38655235609598
N           1.22618558906726   13.21877435748903    0.05134210438400
C           0.85958877689218    9.60990844073220    3.22347573885744
C           1.07280287858109   10.30664702608236    4.35426930466947
C           0.74178388153915    9.73748093523523    5.69317103226691
C           0.01948090827530    8.42893780802359    5.65032097287064
C          -0.18544780828466    7.74458868157907    4.50922423859596
C           0.25334329543947    8.27094012394628    3.27079096111195
C           0.24787474944391    7.78320590863877    1.97993691180637
C          -0.18638715778555    6.55563724773652    1.42677872865849
C          -0.03288152510620    6.32898921052693    0.09899152099832
C           0.00256936019536   10.75562955987248    6.51679139242498
C           0.61059434550230   11.53976128996593    7.41280083822990
C          -0.04515213873193   12.52892708599768    8.21160937401127
S          -1.75995080225852   12.75197035692864    8.16828949288182
C          -1.67833335066264   14.02438242070026    9.35383593080959
C          -0.35816597243159   14.23614778847614    9.76803031329616
C           0.56820648205683   13.39228176065903    9.11913139639633
C           2.01122653651556   13.46561602725730    9.37380070279464
O           2.82577507510635   12.69759967458236    8.89060082951018
C           2.42969747578922   14.57891318524371   10.25522531825340
C           3.79246854125801   14.80802481146693   10.42836171449329
C           4.23788078862667   15.83941588019568   11.23408929212544
C           3.32316694640940   16.65289788362869   11.88688358377899
C           1.96759017820093   16.42779878309081   11.73420467998388
C           1.50729140304101   15.39740747909064   10.91845051548494
C           0.04727740097974   15.19046423327529   10.80691740484268
O          -0.73678625631898   15.76040977327981   11.54588154597330
C          -2.77083161630305   14.80510376669890    9.78837632482138
C          -4.10858886983406   14.59820222599583    9.62586316863044
C          -5.14680560484072   15.46832132768972   10.15468190755515
C          -5.00293319781982   16.78937571858528   10.48044052237051
C          -6.04935897505098   17.58898358228012   10.98595905203660
N          -6.86333478286179   18.28101910846648   11.40591484565232
C          -3.82566892408389   17.54322443287972   10.27601059985026
N          -2.92942463642474   18.23322170973291   10.08161079044311
C          -6.38752302713774   14.70484451671573   10.17454744054186
C          -6.15912340786575   13.45677406432937    9.52453738568500
C          -4.75302381569309   13.37890260994276    9.09900041290864
O          -4.23167096767005   12.48478367734034    8.45940247320887
C          -7.15109398519795   12.53053577718884    9.37521475176715
C          -8.43620044858849   12.80928063904951    9.89177016886615
C          -8.66844487228402   14.04902239210929   10.55489916945882
C          -7.62485107410700   14.99439310985811   10.68405627154138
C          -9.95149150238004   14.30966809258114   11.07661953311930
C         -10.95874197574026   13.39196185382983   10.94983324414990
C         -10.73003520397383   12.17310849539417   10.29440873878957
C          -9.49600181470833   11.88842498805343    9.77579266256850
H          -1.36355660916001    5.97249141242399   -9.27060374159439
H           1.67283569534080    2.06345442941416   -9.87551965644443
H           0.78026949787324    1.71451280723625  -12.09673862781169
H          -0.75007137383438    2.35840544854348  -13.91561015041973
H          -2.26290042637594    4.28294675428997  -13.64361687372375
H          -2.25463584019825    5.58169812678799  -11.55023251777639
H           2.21870341758904    3.76293130483258   -4.65405906133896
H           1.22055487830313    8.96447339446675   -8.00241765041058
H           0.02424679138611   11.10662118297014   -8.39110641555817
H          -0.98056245526446   12.30730483995507   -6.48158634278999
H          -0.78642112971864   11.36715608234570   -4.19636089379491
H           1.50699663178401    9.20876565307565   -0.89685550978198
H           1.88228793893293   11.87366520337880    2.22262670614298
H           3.04350903923670   10.67754785042194   -0.29418432812412
H           3.69651763173870   10.25571708889031    1.30251753193490
H           3.36197919033841   12.99332635419734    0.37168068908609
H           4.79713384368754   12.18543040500005    0.43217463838840
H          -0.23248192500184   11.86605076439976    0.84460985549382
H           0.71343534554912   11.30029742076295   -0.53862792560657
H           1.14928488336873   13.82574510220134    0.86217815959457
H           0.64553139412747   13.60788212173437   -0.68341125317066
H           1.52931570752527   11.28681188898856    4.35208312841117
H           1.71320845808651    9.56945184769024    6.18883148692491
H          -0.31186464736146    8.04417230716759    6.60263717853946
H          -0.68395543951660    6.78630129358322    4.52434148762262
H          -0.63085836188167    5.80866631058700    2.06763765057550
H          -0.36203342001087    5.39739308314110   -0.33816100870956
H          -1.06093298837840   10.83353152112194    6.33507787582809
H           1.67686900446138   11.45703347470848    7.57841114904592
H           4.48726052172504   14.15998569290258    9.91483011744766
H           5.29723786631248   16.00940650614944   11.35489361162928
H           3.66775050541196   17.45960564130547   12.51614124025559
H           1.23744582325843   17.04417062002488   12.23729044197592
H          -2.47137352694976   15.66103098625864   10.38390042207423
H          -6.95714033582632   11.59412954684677    8.87349096715173
H          -7.82805608335568   15.92280789696183   11.19397059822673
H         -10.12313444131085   15.25022620929645   11.57889634630199
H         -11.93768744742201   13.60050168295134   11.35441450963067
H         -11.53600085293231   11.46044175290432   10.20342991622382
H          -9.31394818570511   10.95125642520920    9.27057747143029
