103
 SCF done       -201.210094147490          0.000945676180
C           3.68347527505291    9.57503845892216    4.30601134592164
C           3.37730416477859   10.22309413310995    5.47179268955468
C           4.31585103631902   10.93470322674673    6.25010507382466
N           5.02927708453441   11.52739646711501    6.92575515752610
C           2.10175245810034   10.23570952176267    6.07514195348497
N           1.08988168765633   10.28241389042865    6.61518191109573
C           4.99553124060643    9.51848323669528    3.67461853089052
C           4.94247247713375    8.61466670198303    2.57386784316530
C           6.03086953580581    8.37252520180314    1.78633769967249
C           7.24073312547321    9.04811134862767    2.05783552766542
C           7.30270557515142    9.95451285103919    3.15639661953623
C           6.16339858472784   10.17658874111729    3.96154022957731
C           8.51708366433842   10.62239957382574    3.41797709410738
C           9.61641935491946   10.40984934268553    2.63205764684491
C           9.55355227629864    9.51982250836160    1.54886255691660
C           8.39163359077593    8.85351819363367    1.26860708195308
C           3.58799176529243    8.04889377480837    2.47377720321048
O           3.23540617566515    7.07435932374369    1.84858184232693
C           2.76679649051334    8.82634833071313    3.45935596613726
C           1.41277005401105    8.81261279827977    3.50318451630911
C           0.59571627508164    8.30644235543219    2.44963923604862
C          -0.73484074647719    7.69709866415382    2.58874378510825
N          -1.30110644402286    7.38933533840554    1.46050606524132
C          -0.42929074177836    7.78606876116539    0.48832263853086
C           0.78828819127000    8.35650739070358    1.09082952147386
C           1.65531842470020    8.86759005487190    0.05886490586831
S           3.00313226858752    9.79312816530740    0.27461132333517
C           0.99232756454531    8.52903225316889   -1.16604703797260
C          -0.30005031912048    7.88416148775721   -0.87101983834139
N          -0.97390083815442    7.61039210751429   -2.02721642861954
C          -0.22051046848461    8.04465803120581   -2.98859729375699
C           1.04807926733707    8.64738972174811   -2.54146834051123
C           2.06689477875341    9.16187337913115   -3.37164936958310
S           3.62546829605399    9.57434569802896   -2.73174030460993
C           4.22357840252937   10.03229231799171   -4.28344437363084
C           3.22392064135663    9.91190173291096   -5.25499352560129
C           2.00608349313523    9.40736389086612   -4.75374388427144
O           0.87770899846360    9.14157110512780   -5.41935991076385
C           0.83492072110970    9.21739949492009   -6.84232178377718
C          -0.40926697089080    8.47136799982464   -7.29420705866423
O           3.39640063887134   10.33263676539370   -6.54937129717224
N           3.32223570702907   11.77262355637017   -6.74166849539053
O           3.42148269964462   12.08307953161750   -7.86874156390356
O           3.16777450993303   12.40547817316013   -5.75994648494484
C           5.57374978338905   10.44367940095914   -4.40431134506791
C           6.24269786283417   10.62047336675649   -5.57292546056187
C           7.59351234331378   11.03158529182442   -5.67160217596502
C           8.58708216096402   11.23611127070350   -4.60653774345646
N           9.74489649109310   11.65074938941108   -5.02437961816815
C           9.63021743220375   11.77188564872914   -6.38197452965833
C           8.28420656129012   11.36313167513867   -6.81718447460549
C           8.14401161151005   11.53249139071801   -8.23461942414350
S           6.88001103341458   11.07089504341281   -9.18251534313454
C           9.39438368140038   12.12658661156484   -8.63909555669232
C          10.31594079105413   12.20281734101887   -7.48553164489266
N          11.51599902988304   12.72154780948093   -7.87311028778097
C          11.40006070749859   12.97343167594088   -9.14277671555871
C          10.07498962924324   12.66496070204132   -9.69972820909909
C           9.65515693748534   12.85850891877756  -11.05284782588064
C           8.39860441999750   13.22621374259432  -11.39363757212637
C           7.78056423793218   13.20734852220375  -12.71251588605801
C           8.42229572769134   13.06885406267352  -13.91288643198938
C           7.76692389128522   13.05285205973789  -15.16292332563576
N           7.29494655348015   13.03513860033071  -16.20879545314547
C           9.82074969029265   12.96070530531335  -14.06689604278816
N          10.94984471297990   12.87073835334751  -14.25362791392567
C           6.34430573987422   13.35369001961318  -12.51641663531357
C           6.08789928267987   13.62061525031551  -11.13912350718761
C           7.36388658851557   13.70294966965371  -10.41670726763484
O           7.56704807134167   14.17624927598476   -9.32136314299575
C           4.81984268122283   13.76897810864333  -10.65468542523377
C           3.72949559775267   13.65897637086306  -11.54410168814191
C           3.97596037332613   13.41533244776658  -12.92686760542965
C           5.29889035610515   13.25991399683755  -13.39833769512607
C           2.87709673904522   13.32883136244682  -13.80654029726782
C           1.59756868383689   13.47048897688992  -13.34342808475099
C           1.35630946309217   13.69905475418510  -11.97978589184423
C           2.39943285365549   13.79052986004486  -11.09903261007764
H           5.96417012805625    7.68339879140843    0.95769004612375
H           6.24026061560555   10.87161437830745    4.78276486249966
H           8.56068042741240   11.30618707456203    4.25286519072832
H          10.54138952796528   10.92635474095984    2.83984529660555
H          10.43076355029483    9.36520828202926    0.93853787284575
H           8.33777609095051    8.16515111430160    0.43768862340474
H           0.88464162820662    9.25294256617027    4.33975938354933
H          -1.21732388164170    7.48336386264570    3.52662366786186
H          -0.52109472736067    7.94465507308375   -4.01482893457581
H           1.73417411135239    8.76433630725104   -7.27226389926206
H           0.77849232134091   10.26750874435797   -7.15487927997942
H          -0.34941494483402    7.42687249936277   -6.99970189872945
H          -0.49466821968610    8.52965203952941   -8.37495359572318
H          -1.29428764392460    8.91190760824977   -6.84307191574081
H           6.08877405935991   10.59356651626180   -3.46543867821107
H           5.75343933475692   10.43966902396806   -6.52041639371674
H           8.42384785805820   11.06293672586427   -3.55713647584850
H          12.21736979972764   13.39648397365679   -9.70053994668346
H          10.39854276028068   12.65699746860384  -11.81396203719600
H           4.64815121039634   13.95017539145022   -9.60482607687477
H           5.45277513991604   13.06223818902660  -14.44749734621422
H           3.06682083229556   13.14965916857139  -14.85470408491164
H           0.76294164452560   13.40553558513257  -14.02538853422447
H           0.33902273527835   13.80407721083403  -11.63292034817436
H           2.22533395414457   13.96269578688906  -10.04757163882725
