138
 SCF done       -217.811133453591          0.000371440792
C          -0.27366012504526   11.94918904430838    2.31773901863214
C           0.98419590850478   12.06470154297935    1.76430110584006
C           1.83979476173862   13.15984309725674    1.96935737767252
N           2.56210649569966   14.04666201478540    2.08050010270983
C           1.56343748424029   11.02079781977975    1.02106959781466
N           2.05410724575519   10.15001212840313    0.45343856441033
C          -0.81199649520980   12.80639309612298    3.37113743771630
C          -1.87084887917644   12.10482408442253    4.01598821615537
C          -2.54501246218138   12.64167126090605    5.07225463232118
C          -2.19227783529946   13.93231493526021    5.53145218160081
C          -1.14311317063476   14.64288436981461    4.88219410020445
C          -0.45383800908264   14.05575569942760    3.79440858058825
C          -0.80596807914692   15.92957577217992    5.34675767790850
C          -1.46992845256458   16.48931045059870    6.40458042076574
C          -2.50250758611640   15.78869395377322    7.04397146830489
C          -2.85532397164573   14.53714885569651    6.61661406562136
C          -2.06892048221716   10.80352258006246    3.34421364658141
O          -2.86962028451499    9.93587061409232    3.62892492465087
C          -1.14170424796024   10.81310240435655    2.19290362934362
C          -1.26321342160582    9.80105687654722    1.26937974946432
N          -0.98338241891721    9.78289339855058   -0.03670032945822
C          -0.76846825305614   11.00870063301935   -0.79090393121488
C          -1.90045138498516   11.23737843468576   -1.79074379848032
C          -1.01470231656582    8.58166595610596   -0.75478106801191
C          -0.34981112619309    8.41333503455562   -1.93867577970101
S          -0.51191356911717    6.83364684000396   -2.58268102373946
C          -1.49987234294821    6.37073841739785   -1.26522805624890
C          -1.69270351523590    7.37370689896297   -0.36268772456388
N          -2.46392443843878    7.18961884647589    0.80736242361945
C          -3.89964698977963    7.39183523686291    0.67859679802485
C          -4.24196128117683    8.64674625891960   -0.11262288985131
C          -1.99894102838526    6.21070321785184    1.69583323603602
C          -2.83125859700225    5.41312327547835    2.43026365919687
C          -2.29003392862481    4.48980613724852    3.35993007006308
C          -2.89078328216416    3.58510568468093    4.21678817879561
C          -4.33685464299733    3.26592432069824    4.43886574050599
C          -5.25640320440172    4.49587839629987    4.44216406216301
N          -6.37795559524768    4.25590094982391    5.34299580886893
C          -4.81761882440506    2.21299054591366    3.41886384200663
N          -4.81482388111773    2.75346560860236    2.06915971417758
C          -1.82647750575871    2.88888183223192    4.90325199708168
C          -1.85198473999053    1.92737627739302    5.84422404837914
C          -0.60400556806281    1.34642499479728    6.41199208329282
C           0.65887261952653    1.91812192587135    5.84490336951548
C           0.67088489135408    2.88968734111154    4.91463841704004
C          -0.54455437923850    3.41649274816050    4.41708316236981
C          -0.83950804940877    4.39172435940284    3.48894746513352
C          -0.01250262193025    5.24279100872280    2.72005163672415
C          -0.57506299817083    6.12697924689244    1.86214515289310
C          -0.61959268781868   -0.15452228478002    6.22903907474445
C          -0.33341767092881   -1.00236999169022    7.21449996807629
N          -0.37342159386746   -2.38339497201890    7.16992907678289
C           0.12160033141100   -3.11326766119233    8.32626479922132
C           1.64215540587821   -3.24830168441594    8.31679611490179
C          -0.33549812984810   -3.07009075453416    5.95097121257835
C           0.42670500312878   -2.74722139888315    4.86772252716642
S           0.21209866447663   -3.83618866664917    3.56028534080093
C          -0.90514703911238   -4.76385159935531    4.46214550235854
C          -1.10383402672067   -4.25623829723399    5.71149259079648
N          -2.02290847488486   -4.79078133458336    6.63112381675823
C          -3.11287742549360   -3.90765692392393    7.02047397458220
C          -4.23443098720398   -3.93587444005614    5.98580502393386
C          -2.11359487957394   -6.08768491904590    6.91444585195741
C          -1.17814755317149   -7.08309884064003    6.73503910604879
C          -1.46164354955698   -8.48979220362189    6.89642157471510
C          -2.69832379572069   -9.07532428800258    7.03822435811885
C          -2.90353005744487  -10.45846205013906    7.20675111068260
N          -3.14239376702077  -11.57154370956768    7.36163585539297
C          -3.92605769464759   -8.38867712515343    6.99763656939637
N          -4.95836066267734   -7.88439373669961    6.93862052710675
C          -0.19923776358834   -9.21337868495031    6.77909503104381
C           0.83447919551201   -8.27084554536489    6.51828399803867
C           0.26334182423023   -6.91068542758131    6.50937561157864
O           0.89205270945299   -5.86957493576201    6.42753925867390
C           2.13003853598824   -8.65295799471302    6.33254576853851
C           2.45905064142349  -10.02653899452875    6.39739680472881
C           1.43273434819794  -10.97540517009816    6.66840046199748
C           0.09790069528072  -10.54704340492519    6.85855240833884
C           1.77229423815764  -12.34144217563114    6.73756557519361
C           3.06291979965097  -12.75335244925223    6.54375016106796
C           4.07230470333140  -11.81821690303950    6.27331638119738
C           3.77655879502574  -10.48363409568932    6.20216940844167
H          -3.33724086787856   12.09004825555725    5.55627796978478
H           0.33529172941675   14.61548761589539    3.31620917768444
H          -0.00754318666299   16.46421630393037    4.85301340811285
H          -1.20178606593628   17.47508520825039    6.75453339459991
H          -3.01709263954611   16.24461439558890    7.87678783193880
H          -3.64990896983911   13.99221428630427    7.10551296784859
H          -1.75187694964204    8.90766490984761    1.64691144649197
H           0.19379875201784   10.97681424454229   -1.30485190744131
H          -0.75619911996974   11.84073513997943   -0.08887622204883
H          -1.72964315461393   12.17231939145012   -2.31713922944278
H          -2.85547248491649   11.30082206176250   -1.27410620118100
H          -1.95240751260341   10.43432163413382   -2.52075359269350
H           0.26631953704846    9.11515729432229   -2.46129098152683
H          -1.88437352516013    5.37188266581422   -1.20330570672365
H          -4.29747541481312    7.49637533998995    1.69094774540286
H          -4.37430340762995    6.52077209970388    0.20075375045907
H          -3.84694523668195    9.52900932432736    0.38432333121017
H          -5.32297012554335    8.74402485708170   -0.17113696010614
H          -3.84799830169980    8.59719913785630   -1.12564584278346
H          -3.89859622180512    5.45542858908147    2.31109796387060
H          -4.42967854201402    2.81404273798408    5.43219912552675
H          -5.57623284650972    4.70975695910286    3.41277061427170
H          -4.70561825220775    5.35702583695154    4.82806159353360
H          -6.95654569929686    5.08679972992992    5.40572226754359
H          -6.95967479475361    3.50916752323324    4.97614408171182
H          -5.84566350826428    1.91940847532442    3.65468662547294
H          -4.18018193611523    1.31745382228751    3.52633366780290
H          -3.87542178716286    3.05825300379155    1.83286570476953
H          -5.08581117801907    2.03547253729832    1.40551282203471
H          -2.78009402376561    1.51934040319592    6.22269524892432
H          -0.60691987419013    1.54420171556967    7.49522025979113
H           1.57589488527398    1.49581879081845    6.22878670450332
H           1.60522192417108    3.27776541852198    4.53365968649955
H           1.06045282015136    5.19067892819846    2.83275764561888
H           0.04877446574572    6.79875784802586    1.29033060095179
H          -0.84939835815962   -0.49648420380584    5.23218404563960
H          -0.11489833205283   -0.61815042904760    8.20277001999670
H          -0.32182165347035   -4.11081300568887    8.32293294132384
H          -0.21330757069688   -2.58964749703909    9.22594543968873
H           1.94601047723966   -3.86347355375555    7.47379538323340
H           1.97936591779632   -3.72427476662670    9.23368751557180
H           2.11271808171225   -2.27079146987204    8.23328566731347
H           1.10851622939190   -1.92726332164501    4.76901723352969
H          -1.35690334665531   -5.63544119736223    4.03180638129219
H          -2.71126790240853   -2.89702064837541    7.11278692880419
H          -3.49339156139884   -4.22431147897153    7.99411411496725
H          -3.85734339905160   -3.63498017691808    5.01083083753546
H          -5.02401230228354   -3.25061558786711    6.28014539069975
H          -4.65493309830334   -4.93605720150938    5.90571294315754
H          -3.04813824724070   -6.36447615907021    7.38744954194678
H           2.89586709948201   -7.91811438221741    6.13229265185928
H          -0.65593376289411  -11.29008170797157    7.06491844184880
H           0.99065839627864  -13.05779383523552    6.94465876822935
H           3.31246002074020  -13.80258011575019    6.59716874290107
H           5.08548802794009  -12.15985465190994    6.12171420187489
H           4.55032022267924   -9.75865285555757    5.99465620616457
