98
 SCF done       -188.056845946236          0.000875350446
C           3.29405620819077    2.50919206174300    2.05328558364394
C           3.26131367954474    2.53006518644031    3.42142855528629
C           4.22835750025697    1.91514823919181    4.24673305558840
N           4.96858018008061    1.42936361822441    4.97675112928189
C           2.26033111528314    3.13736672538150    4.20927438361847
N           1.48468212712216    3.60182324833157    4.91709555091882
C           4.32397376545759    1.87819039482656    1.23859076889713
C           3.98730500412652    2.03918216533845   -0.13594757023763
C           4.77537139114645    1.54627208243223   -1.13621965519998
C           5.96200887414570    0.85770685022353   -0.80233163211701
C           6.30577258595406    0.68893286062278    0.57064552551595
C           5.47033488185531    1.21010223691229    1.58417594543990
C           7.48884182040440   -0.00730030082366    0.89333193390768
C           8.29432108761269   -0.51219705504096   -0.09069318442401
C           7.95586649258100   -0.34348219533587   -1.44199131159838
C           6.81523051466269    0.32755773008117   -1.79020672920251
C           2.72012123895504    2.77385632791950   -0.25217902532999
O           2.09068460623071    2.98207355663701   -1.26569766036828
C           2.32820717458775    3.12000129424565    1.14859429824760
C           1.21224080120983    3.80892838614412    1.48720661853037
C           0.34356450281995    4.47844485530650    0.57216138520131
C          -1.12428361613855    4.46245878461842    0.67593598238253
N          -1.73293694207678    5.08299014956566   -0.28846031484584
C          -0.74582482698832    5.59150630692397   -1.07887645593252
C           0.58282769338406    5.26241507728682   -0.52690161311462
C           1.61889929202007    5.84798027223927   -1.34873974990643
S           3.23665744484140    5.86515293824768   -1.05821885678277
C           0.90398268269774    6.42290869076206   -2.45409110630836
C          -0.54655970072648    6.25209029232367   -2.25897647755326
N          -1.23813616450165    6.73637554982732   -3.33329183087307
C          -0.34106202723430    7.13683750824261   -4.17802135067471
C           1.04791422633197    6.96604179897876   -3.71512413929933
C           2.20735289410779    7.31780504906585   -4.44276994296312
S           3.74881729556141    7.49852440635268   -3.66148991092103
C           4.52122191070429    7.89752449819652   -5.15379356137841
C           3.61476613827024    7.86154702014007   -6.22668055762586
C           2.29860143756402    7.55370826429260   -5.82452173474392
O           1.19768516766288    7.44547109191569   -6.58248435369431
C           1.29454908870318    7.63264938951530   -7.97923042727836
C           4.06913714057601    8.12958346798316   -7.52834123318439
N           4.50357040997966    8.35312093849566   -8.56748845525975
C           5.89347724568065    8.22022851716447   -5.25369433719626
C           6.71345555475103    8.38551544957614   -4.18254764274586
C           8.07985426137216    8.73894083475678   -4.27245206477785
C           8.92708660095500    8.77302265452746   -5.47244559971848
N          10.15283364226879    9.14698418196437   -5.25505130685158
C          10.23026505824505    9.40480484224977   -3.91651356690728
C           8.93759469541023    9.14053237346927   -3.26624327238505
C           9.00835142564802    9.46299519542274   -1.86829566918694
S           7.82589879456112    9.35619059282093   -0.73046370225110
C          10.36729816385725    9.91715436741002   -1.68283292729464
C          11.09903697031101    9.87172383195334   -2.96382028130394
N          12.37315939150153   10.31919335104483   -2.79870473675899
C          12.47036702973256   10.67540215214772   -1.55257155116929
C          11.23182423272232   10.46961357009218   -0.77484272445795
C          11.00598939985276   10.80551197812319    0.59245241800179
C          11.42858400674390   11.96896691972003    1.14670837530734
C          11.29531436862263   12.42391766886014    2.52078116708010
C          10.95122405737407   11.65076985637643    3.59586455298661
C          10.85252533232000   12.13554498057036    4.91760470570937
N          10.75822203501904   12.47763493928053    6.00867731878480
C          10.68788009663240   10.26540601021439    3.52781275604220
N          10.48426910600331    9.13632277275006    3.53894190671702
C          11.66119863233262   13.83421738265382    2.55208839521262
C          12.06591247142705   14.23495986641787    1.24435754895831
C          11.95205144467751   13.09632940901445    0.32482334082045
O          12.17920834368181   13.08177446837872   -0.86693587006198
C          12.47521915519051   15.50991284600132    0.97331989959087
C          12.49850033191916   16.46147655271476    2.01640415118432
C          12.08856767919931   16.07185972001034    3.32512428488235
C          11.66987643823639   14.74512963504478    3.57582237441474
C          12.11068932374763   17.03226281286368    4.35692734150944
C          12.51911829687411   18.31494385171626    4.11035675460185
C          12.92380836809441   18.69673359526223    2.82228005817319
C          12.91404489442064   17.78978412766000    1.79736934168642
H           4.49562704758459    1.68369473791847   -2.17022710924768
H           5.76034332154283    1.06585751208761    2.61271731917061
H           7.74576425172015   -0.13409715420997    1.93468901839819
H           9.19767984683264   -1.04458881226175    0.16640308641638
H           8.60346844167688   -0.74827876446819   -2.20531327427897
H           6.54911749452068    0.46025712875085   -2.82873847821419
H           0.90036059358278    3.85138661580621    2.52406800823222
H          -1.67751731823099    3.97182951871483    1.45770486742691
H          -0.62369218724856    7.57709768916402   -5.11633484983504
H           0.28624389429663    7.48329836262209   -8.36165481985303
H           1.96889769874731    6.90312098342125   -8.43445153233627
H           1.63337982815314    8.64230260453542   -8.22484773763256
H           6.26965877918138    8.37571505479444   -6.25647843620944
H           6.30902377812840    8.27601300209544   -3.18325069542284
H           8.61295040603588    8.50785769868613   -6.46667228379152
H          13.41013156359654   11.00238694356140   -1.14749793036123
H          10.40792723036400   10.10701852114172    1.16518093757697
H          12.77815875068284   15.78719323812138   -0.02549081806734
H          11.36114966706744   14.48257414215032    4.57530726565079
H          11.79931889350741   16.73399836941694    5.34714138402739
H          12.53266902521757   19.04306741409998    4.90730093016295
H          13.24288243252624   19.71295421934048    2.64612066750227
H          13.22396461368301   18.07763990201221    0.80354116658386
