111
 SCF done       -233.715448418666          0.000440860621
C           0.68324316816459    6.43267000041070    2.67869314657506
C           1.51320813834837    7.46326759352545    2.33507671524806
C           1.78504878606205    8.56749645471687    3.17285619056731
N           2.02696642633072    9.49604416386984    3.80131450348305
C           2.25748716431284    7.51754855224545    1.14072141259143
N           2.91477056992594    7.59241457915783    0.20192852536576
C           0.08503970545429    6.21553875904469    3.98512960281468
C          -0.35018405408727    4.85910812780473    4.07522341073094
C          -0.91182510795458    4.36145547008171    5.21660471160316
C          -1.06956003527114    5.21022136915489    6.33472532054148
C          -0.65734999500983    6.57246804242101    6.24305646763880
C          -0.08009050713304    7.06176234687272    5.05068760820039
C          -0.82788938959746    7.41119461579059    7.36388003561539
C          -1.37263741231603    6.92836040886674    8.52231335980389
C          -1.77436545100150    5.58683055298617    8.61293979854377
C          -1.62688403770093    4.74643686202238    7.54272870267522
C          -0.10929525095362    4.17648293658656    2.79594492494002
O          -0.30747807465640    3.02548056804376    2.50183584933620
C           0.37933588977606    5.25756486024007    1.87220392702936
C           0.29634744713805    5.08077658539689    0.54442988935720
C           0.44900326115783    6.07676774468293   -0.50190629523459
C           1.35714794727989    5.86901906460606   -1.54144084265785
C           2.30211529307282    4.73695196246747   -1.72018087895725
O           2.40404231334732    3.74254279817557   -1.05501174509623
N           3.07922682029955    5.07741475793745   -2.83005860994341
C           2.71719654203271    6.31575641366296   -3.37948509158936
O           3.24009168950817    6.82841917091900   -4.32814959798652
C           1.59677933117567    6.81168740229769   -2.53735524080337
C           0.89853627921551    8.00355044497265   -2.59705360028633
C          -0.04392642967385    8.20561158230989   -1.59621631873421
C          -0.26328683845425    7.28751686413270   -0.56707042255379
C          -1.29624915104199    7.71065572870259    0.40093609540465
O          -1.68856845382757    7.13024007233262    1.37082862078263
S          -1.93022616714301    9.31961008209432   -0.07469004151888
C          -0.87082881113139    9.42873722720354   -1.52373285099907
O          -0.87190929810976   10.35347173251840   -2.27377815578122
C           4.17916382254864    4.38014972533022   -3.31533456955791
C           4.46729705831648    3.10380869957785   -3.03589707115575
C           5.67408740346259    2.46574062940488   -3.50093464425687
C           5.85070360700973    1.09313696102177   -3.39717083803655
F           4.84822992978898    0.33718868708906   -2.92473045657573
C           7.03174027218361    0.43285879733842   -3.77493041968671
F           7.06175868399126   -0.90562457565438   -3.68220998070697
C           8.13488219869603    1.09955062054818   -4.27092301729542
C           7.98622644712977    2.49187176041254   -4.40792055223526
C           6.77837469366393    3.15988886554047   -4.04537460283017
N           6.96889957682051    4.46465726766727   -4.29232518125170
N           8.18332984716413    4.53844932460096   -4.75302715936269
N           8.84971288745435    3.42224279327024   -4.84037599123467
C           8.74099752096275    5.78471001131214   -5.17674536298057
C           9.37666782976673    0.42750647886016   -4.63623600689179
C           9.98715022919904    0.63139585082524   -5.87481898847776
C           9.54768974790558    1.45023702147662   -7.02903629354006
O           8.52096278224939    2.04081074406142   -7.21974917673971
N          10.60463478541429    1.38610802982895   -7.95845291674817
C          11.61331733790717    0.49815124816150   -7.55783249928573
O          12.58533446512147    0.19639661081136   -8.18919816722157
C          11.19465708416459    0.01852520828787   -6.21473427848770
C          11.83257502221275   -0.87482328615731   -5.37472679531920
C          11.22890971384846   -1.08820784947655   -4.14085782710552
C          10.05698188253530   -0.43607808868838   -3.76186913299773
C           9.67875669699900   -0.66072372324797   -2.34861659992544
O           8.84749591834947   -0.09786343765449   -1.70576800471182
S          10.77620735867618   -1.90165341396502   -1.64352298803898
C          11.79166747946638   -1.99760394242452   -3.11695833426330
O          12.75728658688614   -2.68978482703060   -3.21745492411874
C          10.57403720670862    2.13797145444858   -9.11886253432648
C          11.62329865803779    2.35937227495622   -9.93119806281113
C          11.48265559720222    3.18546432574135  -11.08217781941175
C          12.51247075434489    3.58368498719122  -11.87595910442670
C          12.42733440499563    4.39947026994491  -13.07856333993059
C          11.31592945919112    5.03863211062826  -13.56085351204563
C          11.30058432657151    5.82326530371620  -14.73407794272106
N          11.21775767056873    6.47488728797080  -15.67540249174640
C          10.04121536843610    5.03756640837935  -12.95638875804312
N           8.98105499399565    5.09983414387183  -12.51907056473506
C          13.75799111997750    4.45444552136553  -13.67207918938132
C          14.66564762928637    3.75400002681225  -12.82723646415533
C          13.94178313056919    3.21529479185624  -11.66407923171490
O          14.42110601574097    2.61695845534502  -10.72635030332621
C          15.99442212019551    3.64916580302062  -13.12207303370628
C          16.48733597345609    4.24726177220790  -14.30274717829370
C          15.58553323630005    4.94435772075950  -15.15821224204709
C          14.21535769723877    5.03891071925281  -14.82473283620168
C          16.08768745131103    5.53577096968204  -16.33571982762247
C          17.41539721691105    5.44480467394991  -16.65336812791592
C          18.30224699640476    4.75894315848345  -15.80965296164833
C          17.84813836275772    4.17296087001996  -14.65935215408494
H          -1.22954399256650    3.33064599414595    5.26662843120494
H           0.21031360628898    8.09963230744331    5.00336048209481
H          -0.51419393391065    8.44196651039480    7.28995274234508
H          -1.49654260037335    7.57729455539793    9.37612830693414
H          -2.20182822624821    5.22298894114545    9.53511831071598
H          -1.93507902859624    3.71335778235402    7.60729674073061
H           0.09662197586449    4.06753243360394    0.20853435768448
H           1.07606572398148    8.74455503339871   -3.35989239324381
H           4.80622653862688    4.97804083857419   -3.96300516003599
H           3.81056626319833    2.49905576187096   -2.42875144606044
H           8.11038963090592    6.58542578671391   -4.79755669412985
H           8.76915073148130    5.82572937850763   -6.26696918474182
H           9.75627165015282    5.87830404769932   -4.79437574866292
H          12.75133867690963   -1.36960222648714   -5.64657178165614
H           9.60468246897915    2.59225190710487   -9.29212997136778
H          12.59309195504608    1.93350762649873   -9.72274510226241
H          10.47608746599690    3.50317359606731  -11.32292644566779
H          16.66049112765397    3.11465888274035  -12.46109904595589
H          13.56000984036363    5.57201203755509  -15.49492041394306
H          15.40154998575242    6.06366942394273  -16.98163662510460
H          17.79031036934912    5.90132461502853  -17.55708489826804
H          19.34679956256824    4.69730203787338  -16.07594577840426
H          18.52577364139158    3.64355158861401  -14.00565734871527
