120
 SCF done       -220.240359888260          0.000759297101
C          -0.54194645408130   12.03976906821628  -12.04075093579575
C           0.53825665672910   12.16423118189316  -11.20798496989654
C           1.63595507714785   13.00741998317234  -11.47429123643829
N           2.54381429866123   13.68865875246655  -11.64457414861151
C           0.71597476612433   11.38390905491349  -10.04578678183364
N           0.92041064204555   10.72600226937567   -9.12753717650250
C          -0.65127467776099   12.58946911965729  -13.38619630006580
C          -1.62887856382808   11.83737064505871  -14.10289532784862
C          -1.91785423969446   12.10247804563789  -15.41067892677067
C          -1.23882550000295   13.15362070795221  -16.06726863926734
C          -0.27244611131003   13.91816800824543  -15.35100848866900
C           0.01190117774556   13.61775587404757  -13.99890457928593
C           0.39188768912217   14.96788378152347  -16.01713461233721
C           0.11912256442939   15.24892556565420  -17.32822504884549
C          -0.83116583301371   14.49500778611856  -18.03301072008394
C          -1.49518997001262   13.46968961554956  -17.41615873397132
C          -2.21530022733828   10.81781913199958  -13.21362417049323
O          -3.02589125255045    9.96465190274334  -13.48352692853824
C          -1.64104028373510   11.11261536758296  -11.86526299872635
C          -2.22749593184820   10.62177954788088  -10.74313895837739
C          -2.10679368049414   11.10597863011195   -9.41809496316235
C          -2.32276778266866   10.39821481346230   -8.25966403176166
C          -2.13507494047230   11.12472127660780   -7.05735598817642
C          -1.81153761603687   12.50937547653354   -7.21137241840900
O          -1.62038894123283   13.38613139752521   -6.41674124556465
S          -1.74480866517687   12.78944265662302   -9.02732283277391
C          -2.28858562720809   10.23695861505509   -5.99976701058660
O          -2.58839806740493    8.99986290075389   -6.48331273318052
C          -2.62118048618516    9.02302237471396   -7.87637329931498
O          -2.87416436605187    8.04708925500585   -8.52043439580627
C          -2.13497669760380   10.48650617289843   -4.62621294455682
C          -2.24230149044507    9.52036460580146   -3.67140233989674
C          -2.02203212677030    9.68862605992216   -2.27071187895148
C          -1.72061670303291   10.91818483253195   -1.70716870482537
C          -1.43959564981515   11.01748343356528   -0.33850080275298
C          -1.07275955773437   12.11767920448576    0.43538077282746
C          -0.95356238824128   13.52098760851791   -0.03629655330284
C          -1.98595985479938   14.43763280551724    0.65140394312107
N          -3.32551374663617   14.07140205419099    0.22761364600445
C           0.46750199048009   14.09370889253705    0.13688830744870
N           0.55316977183990   15.37106621702415   -0.54568749935976
C          -0.84505348459624   11.61970404158625    1.77238524043160
C          -0.43224297672101   12.23178270686178    2.89835521811354
C          -0.21110624170005   11.47246295407081    4.16392109916929
C          -0.57362119443730   10.02682149186042    4.10420251782224
C          -0.97833241039275    9.42808136666173    2.96890318451984
C          -1.11548611509313   10.17353375029412    1.77301193365618
C          -1.47486503659332    9.81964646885034    0.48884367575003
C          -1.82394020960106    8.58102557010055   -0.09979684091176
C          -2.08629732082564    8.52532487908126   -1.42880748645283
C          -0.81476209414772   12.25522593453283    5.29391673322982
C          -1.72449330887308   11.79612688880581    6.16343277378203
C          -2.24915117838413   12.58577731713111    7.23169290749104
C          -2.06040275600761   13.91564791011825    7.54442251989554
C          -2.72223729321271   14.35787352883463    8.72923964662838
C          -3.51252007170753   13.36091396081249    9.39681956333874
O          -4.21421947355988   13.39563815114693   10.36370813088426
S          -3.30093817141453   11.82435265142145    8.40417930364667
C          -2.45909511784083   15.71165146419309    8.87688223147568
O          -1.69057772832441   16.13467063313298    7.83173218206635
C          -1.39614154455301   15.08267787455774    6.98857086261681
O          -0.71163922524860   15.23127850649661    6.00862635776616
C          -2.81960263085885   16.66726997865738    9.85054045638277
C          -3.35874574231500   16.36893423907138   11.06548360145656
C          -3.69360413218665   17.38811338037170   11.98892035390050
C          -3.99497046882221   17.17273445741385   13.30239219572639
C          -4.43906915797718   18.15376890023318   14.27667552869721
C          -4.62410634141639   19.49637376435606   14.06586572164260
C          -5.06432735336477   20.39987379444728   15.05662159079287
N          -5.41319879449688   21.18877098456075   15.81394082210924
C          -4.40257355071940   20.17775737983435   12.85084468986913
N          -4.24905952632800   20.80715905260195   11.90257633332677
C          -4.66649142623623   17.45676261518208   15.53758651729749
C          -4.34353006831582   16.08002080955900   15.36562152484854
C          -3.88349866988216   15.85049380678821   13.98661302049194
O          -3.45497553222408   14.81709304011657   13.52438183624912
C          -4.45282946923634   15.17857535592792   16.38489864812011
C          -4.90278128110433   15.61945073687715   17.64917284768157
C          -5.23117738108734   16.99440923028860   17.83007403726648
C          -5.10588065816538   17.90487224578743   16.75610178407840
C          -5.67810362448511   17.42453681587871   19.09621806225059
C          -5.79435387781760   16.54097518834901   20.13454054794176
C          -5.46964219273381   15.18783117523802   19.95536950226477
C          -5.03372228514616   14.73670471895488   18.73899421436772
H          -2.65563568993708   11.51730627981324  -15.93923212129434
H           0.74032419515318   14.21641918934350  -13.47431743383680
H           1.12486157118156   15.54346214845950  -15.47120689779474
H           0.63479676949041   16.05395268522536  -17.83002209533412
H          -1.03451153493079   14.73085636851521  -19.06687126651536
H          -2.22792541003566   12.88575378687432  -17.95366785209040
H          -2.91685836537354    9.79308682733772  -10.87755940415635
H          -1.89259279134206   11.51102985448510   -4.38737776786025
H          -2.48515377398312    8.52012604808860   -4.00763894413486
H          -1.68910681613441   11.80402268595967   -2.32126398221793
H          -1.17651889672986   13.54132507686076   -1.10831194127098
H          -1.70766228857778   15.47364209933887    0.40548642731483
H          -1.93570014615759   14.31207171490946    1.73459870473328
H          -3.46122844728782   14.29649545726484   -0.75240704984459
H          -4.01965542270810   14.58012590006885    0.76205426038758
H           1.19090813388800   13.34669334626301   -0.23194507858897
H           0.67489058275661   14.27138861051456    1.19358411138404
H           0.48539094161031   15.24617077251995   -1.55033776516859
H           1.43457861665954   15.82884544644965   -0.34652354180480
H          -0.23696668688273   13.29293555713543    2.94608710486712
H           0.88032678747707   11.51996864755584    4.34360358863999
H          -0.44914997750050    9.46579043264907    5.01746901503470
H          -1.20527372232349    8.37226362649425    2.95421040146253
H          -1.86929294230830    7.69323055198571    0.51309304893334
H          -2.34403772916923    7.58507814812871   -1.89339336623316
H          -0.46935085182056   13.27697505807946    5.37033077153123
H          -2.09595274109796   10.78262762537280    6.10700116864648
H          -2.58426174891801   17.69336554064290    9.59637913079272
H          -3.52358082737255   15.34080748899949   11.35492112002446
H          -3.70832191922957   18.40043684063678   11.60485288007723
H          -4.19888866679402   14.14105904221784   16.22629912033700
H          -5.36124926420783   18.93824578567798   16.92811137251473
H          -5.92641752146651   18.46722558040555   19.22957618476023
H          -6.13717126876197   16.88009467188666   21.10049782080906
H          -5.56661906652284   14.50485829677953   20.78593594881936
H          -4.78218316612096   13.69622839332981   18.59469139110300
