90
 SCF done       -175.088124330099          0.000838393182
C          -3.67321825679917    6.47275146850545   -5.62299374116631
C          -3.51460943638111    5.15880049996606   -5.27307466573667
C          -4.23146595552511    4.09744237605362   -5.86740717060430
N          -4.77511950976824    3.19244230304244   -6.31712810278026
C          -2.68500005391849    4.67496883833680   -4.23655632982677
N          -2.08309427826619    4.20101580737218   -3.38179103016999
C          -4.65452241829021    6.98407320972036   -6.56886678772438
C          -4.67682928649544    8.40406637854779   -6.46853007987569
C          -5.52968615842277    9.16759748014108   -7.21397582932055
C          -6.41138415316345    8.53270971797131   -8.11590476851151
C          -6.38461481569380    7.11215275090847   -8.23362957052653
C          -5.49269938913102    6.34830962621432   -7.44696011379541
C          -7.26679073302690    6.48954709339793   -9.14017673464674
C          -8.13681612105865    7.23176040034511   -9.89161808505667
C          -8.16401850529621    8.62972334204313   -9.77316182169949
C          -7.31941710435659    9.26645120935856   -8.90480138008420
C          -3.68584506497096    8.85188186521162   -5.47781390322679
O          -3.50041568776552    9.99382424071078   -5.12123850694436
C          -2.97710018792059    7.61318804699639   -5.03568546081044
C          -1.80955372719829    7.49772535845853   -4.34562049764493
C          -1.01026480628098    8.46761905799668   -3.68777885290739
C          -1.25035610070352    9.87716622812871   -3.36427450049423
N          -0.26712332659023   10.45326925549696   -2.72688252257208
C           0.67599962611250    9.48856560285238   -2.54583580464331
C           0.23254807994351    8.21637884692911   -3.13428418745734
C           1.26782366196998    7.22301203566057   -3.01401074846404
S           1.29479127940187    5.70186026129047   -3.62806941233643
C           2.33112549857510    7.90991230006138   -2.31819332230351
C           1.93555812627503    9.30393725093067   -2.03900270954015
N           2.96133821993336    9.98788764110588   -1.46382543870419
C           3.96084542904709    9.15310001295404   -1.42157971207179
C           3.65236526320703    7.82674443196888   -1.96483208669403
C           4.60928648014311    6.76772502207081   -2.10236883741050
O           4.32308818154283    5.49015859201428   -1.80097141217950
C           5.42891683954615    4.76504908613355   -2.01500419566127
C           6.44867323427357    5.54052974932434   -2.48262048128003
C           5.92057130984446    6.84936332383600   -2.55169476895930
S           6.61827680027098    8.31943023732316   -3.23082968126318
C           5.23172047385139    8.68253577628048   -4.22158640690292
C           4.53455543311593    7.68203032130903   -5.02345493658590
N           3.44043880968472    8.12450274796500   -5.56992239685393
C           3.33227174352998    9.42571872211062   -5.18120026442942
C           4.50718957233027    9.83320259805451   -4.38647053580285
C           4.32413546544149   11.16625286265108   -3.86988774581215
S           5.31940859242787   12.00879787512867   -2.87064623369666
C           3.00245706352793   11.52484391914069   -4.31054815146069
C           2.41467008047036   10.44104582428713   -5.11895624290310
N           1.10734882589727   10.70122642008170   -5.39156010343969
C           0.82286736222651   11.79798918704001   -4.74267115631622
C           1.95728467820151   12.36970351086233   -4.01270154311099
C           1.93182279421704   13.45662982683852   -3.09488988124371
C           2.99555417733403   14.27415169435058   -2.89491917265065
C           3.21421283666385   15.21872704220354   -1.81164434984173
C           2.32281836414896   15.55130581412217   -0.82708865358793
C           2.59549208130070   16.46773383436055    0.21126351739401
N           2.75009632069653   17.20343504910768    1.07874065549983
C           0.99959075549825   15.06967765737873   -0.73026899756251
N          -0.09125170306252   14.73959653251108   -0.59303216281079
C           4.56602537480908   15.74376916999893   -1.95501249107919
C           5.13305410983249   15.24506407151717   -3.16341332916143
C           4.14952152746150   14.39036934545615   -3.84894528806392
O           4.17574816213679   14.01216800474472   -4.99913016301770
C           6.39427777384524   15.58249823059404   -3.56126829325913
C           7.16676842062762   16.44102555248672   -2.74836734806674
C           6.60808869597412   16.94422834283564   -1.53761918369503
C           5.29730711872005   16.58320840480986   -1.15461120497652
C           7.38561414499195   17.80691259522808   -0.73759968369927
C           8.65405535688610   18.15544112648118   -1.11252612625918
C           9.20429333422491   17.65707025914858   -2.30341594157872
C           8.47701080310999   16.81813926312234   -3.10311674170093
H          -5.53118118597201   10.24291297640855   -7.11424200487722
H          -5.49292791111116    5.27612149468791   -7.56274279731888
H          -7.24394733934405    5.41313059403765   -9.22644778689316
H          -8.80994305711048    6.74544641304110  -10.58155584147717
H          -8.85754743057687    9.19920440195374  -10.37352112692279
H          -7.33560776417117   10.34225766838289   -8.80933881479975
H          -1.37754999511010    6.50405445057629   -4.28805053588365
H          -2.14048504705503   10.42599188754633   -3.61234943023517
H           4.90391088420918    9.44492239758395   -0.99422651138427
H           5.37230881928684    3.71505307513778   -1.80652967019027
H           7.43779800579492    5.23375479488239   -2.75029705146131
H           4.87492466683008    6.67604140828660   -5.19452232919478
H          -0.15182872236572   12.24627245992803   -4.81588372619145
H           1.02848095344151   13.55312035660787   -2.50715196823335
H           6.80034033895927   15.19189018029555   -4.48238400486258
H           4.90318776576867   16.98071815392280   -0.23276145378495
H           6.95736343264814   18.18776323636797    0.17802234507086
H           9.24123711615715   18.81771192826275   -0.49403564571479
H          10.20743139929680   17.94195284532335   -2.58346200740463
H           8.89519356667671   16.43213674365115   -4.02125582687484
