94
 SCF done       -182.329373362575          0.000716840017
C          -4.81548684203891    4.65222856309412   -3.66150988894131
C          -5.26940626285893    3.82463609533561   -2.67012621797221
C          -6.12568341928408    2.72364915542011   -2.88914297936323
N          -6.82379457196908    1.81929787484948   -2.99803332491421
C          -4.94252267859368    3.93979435267667   -1.30202175396100
N          -4.71652506625119    3.96981265942377   -0.17674405036162
C          -5.09350773706983    4.51206935512558   -5.08383461021780
C          -4.36178955473384    5.50628876159693   -5.79469812834814
C          -4.42039347624279    5.61194793349528   -7.15499705451353
C          -5.22889044928415    4.71047557739342   -7.88163244870301
C          -5.97125403455479    3.71771076750751   -7.17776094209121
C          -5.89085268773795    3.63265137337056   -5.76950216238958
C          -6.78175727260012    2.82807759788557   -7.91240702972999
C          -6.85489224190681    2.91200854515123   -9.27620995152423
C          -6.12201607177501    3.88826086368592   -9.96812311785255
C          -5.32593794985771    4.76793669674324   -9.28595319211526
C          -3.59943564967371    6.33367689585727   -4.84883737082034
O          -2.92102509946993    7.30155988487263   -5.11231518947712
C          -3.91205261680848    5.78224407470402   -3.49471125099254
C          -3.53604059635906    6.35752389005755   -2.32591254809830
C          -2.57706580865323    7.40398287518659   -2.18653080545702
C          -2.72531632128397    8.53408505747044   -1.25618876886638
N          -1.76079846649579    9.40140957279466   -1.31393855586732
C          -0.88134839329837    8.91054153846258   -2.23305518103627
C          -1.36239898814434    7.63377606233474   -2.78378415441750
C          -0.38640048976010    7.09833958478108   -3.70334445928885
S          -0.47583174767142    5.63112761871090   -4.45176359576213
C           0.64614984333149    8.09650229121259   -3.77132796203669
C           0.29460110389871    9.20839950347126   -2.86118148711086
N           1.20434794370534   10.22213070697994   -2.94823282515148
C           2.05604953840391    9.84155145993115   -3.84334683179458
C           1.80563880335457    8.49970279666907   -4.41093569408143
C           2.71605163247204    7.96969174208250   -5.35676812332110
S           3.79125797278596    9.10603776737923   -6.13187085981593
C           4.62731150046055    7.84203396614435   -6.96868578176968
C           4.07783355221921    6.58782668663367   -6.67485184639522
C           2.98921047294136    6.65941371322709   -5.76602420947413
O           2.39721202785472    5.55546573039883   -5.30473204407302
O           4.61233508271699    5.49476965143143   -7.24645071935522
C           4.00035591886473    4.22839225083896   -7.07665816145824
C           5.75531881804075    8.14638309086502   -7.76110502366528
C           6.70562412625007    7.18519640246874   -8.34965837078877
N           7.73433482008028    7.73171682394352   -8.91818231974256
C           7.57149302803482    9.08095891425821   -8.77380769332503
C           6.30680384292862    9.37409063643759   -8.07116335435135
C           6.13957978771691   10.79226759528040   -7.95043794885997
S           4.79515341748264   11.64846547002919   -7.52859353839682
C           7.37463091236217   11.34040508901050   -8.44862647585809
C           8.21508346396937   10.26612116287588   -9.00759628277988
N           9.35979680596319   10.79012578017701   -9.53615116549338
C           9.28355592603403   12.07340242489072   -9.34553206324878
C           8.07082140712286   12.50693729176744   -8.63603903307846
C           7.68748086905673   13.84327975001687   -8.30672620263690
C           6.95802107913385   14.15419977740978   -7.20924056209857
C           6.22104219031638   15.38078357388017   -6.93970167162338
C           6.38957060464967   16.58884256401229   -7.55849485801938
C           5.63218045816649   17.74118590237785   -7.25786232643373
N           5.05292101592599   18.71071661504045   -7.05477865850953
C           7.36589120924972   16.84912332640967   -8.54320853249587
N           8.14712294630419   17.11591814564222   -9.34076141761348
C           5.25688656406337   15.07445064269045   -5.89142729405576
C           5.53785353602070   13.77862406102056   -5.36674288820017
C           6.70018082287921   13.21421976550646   -6.06833601080931
O           7.38257053249350   12.26987657287499   -5.74094683166464
C           4.77508929060669   13.21812241517505   -4.38173436439207
C           3.65750047535096   13.92540880326568   -3.88754620084477
C           3.36942056069445   15.22199010817399   -4.40860629884617
C           4.19016119802354   15.78787587210422   -5.40990405853371
C           2.24690301153457   15.91736657526169   -3.91407320771273
C           1.43861225064973   15.35635644137239   -2.96283017331219
C           1.71842009048279   14.07792294066677   -2.45690370266631
C           2.80768586617013   13.38079469450749   -2.90414579008321
H          -3.85391419737270    6.37420432291102   -7.66920434641570
H          -6.46861927345278    2.87353612726002   -5.26658015214924
H          -7.34304973213327    2.07753472882856   -7.37559326013634
H          -7.47814081390115    2.22616789442525   -9.82995601720833
H          -6.19197058178576    3.94007259830589  -11.04429563427266
H          -4.76011934862264    5.52205848441320   -9.81311546036572
H          -4.01273659241814    6.05112417851613   -1.40195202021827
H          -3.56128047957472    8.67644440377697   -0.59387468833211
H           2.88426496482454   10.46767239829328   -4.12632738911129
H           1.48973984506453    5.71369418646732   -4.94046310214881
H           4.60406153226936    3.54268349778984   -7.66908219979940
H           2.97403899328587    4.22969528528483   -7.44844518926260
H           4.00492583780872    3.91807781115217   -6.03104089956305
H           6.59075734435653    6.11764447486856   -8.31572799523791
H          10.07189055074607   12.72885211611041   -9.67246507991933
H           7.95405371900054   14.60706438261352   -9.02697201291911
H           5.01433645590710   12.23689323762492   -3.99869096429436
H           3.94363532491746   16.76824031886711   -5.78688223694329
H           2.03563693560095   16.90138128814512   -4.30657425370464
H           0.57776579618845   15.89529884588314   -2.59633309979260
H           1.06817504639983   13.64232585591061   -1.71415784376960
H           3.02012684653601   12.39886284026266   -2.50981655381025
