142
 SCF done       -223.237514454999          0.000419615059
C          -3.41645825405089    8.11302061322873    1.91958215179474
C          -2.66188476773506    8.78605677507827    0.98583944152917
C          -2.91520612926417    8.76769135935003   -0.39779608478385
N          -3.03642365653182    8.76655072589111   -1.54078096580920
C          -1.59203296400440    9.64465465635716    1.29588149412067
N          -0.73981664991375   10.39526621958085    1.47636541103675
C          -4.72056334320012    7.51175940356890    1.64360985106245
C          -5.41733064137310    7.36687658673392    2.87791603970181
C          -6.68513193606821    6.86786931022466    2.93178567673083
C          -7.32002168929648    6.46801937690458    1.73280217803449
C          -6.62177096614733    6.59285570367832    0.49823755495057
C          -5.31137448266642    7.12648295052406    0.47241250603940
C          -7.26120593157619    6.18056077634085   -0.68777558959559
C          -8.53133306636124    5.67186722845010   -0.65909340102043
C          -9.21913518687051    5.55125051667575    0.55688136119086
C          -8.62614522035500    5.94149724592171    1.72714983743977
C          -4.53681616212803    7.80192522996299    3.98012762242906
O          -4.79912744594615    7.85799048873995    5.16390044696626
C          -3.23125056827716    8.09697634365950    3.34529413919789
C          -2.12223769656340    8.16276960764824    4.15594038326503
C          -0.77271240913872    7.97234584014519    3.86569363500340
S          -0.20064500466378    7.37779544982431    2.33611968468877
C           1.44689559661150    7.37274132192309    2.82967733979763
C           1.57185589445733    7.79378457393186    4.16158141574615
C           0.31802304726207    8.12112946555095    4.75571144063661
C           0.27025126425504    8.56920301617827    6.08044808334696
C           1.42169918878217    8.71157064019336    6.82373377063370
C           1.32125785058792    9.17628500132125    8.26756767682905
C           0.45486822972935    8.17868198759945    9.05068658543458
C           2.68370875723592    9.26827611821366    8.96009848681122
C           0.67196094834717   10.56741467910080    8.30044608020068
C           2.65920346112666    8.43420999676521    6.20472903086506
C           2.74450662013537    7.99417384179290    4.91255835229056
C           2.44060089525865    7.00517161993350    1.85722950856636
C           2.22168465669208    7.35543237111671    0.54264245635775
C           3.14401736250663    7.01310929034331   -0.46505801720416
C           3.16959330853176    7.23652171170657   -1.83606566294746
C           2.33657053145819    8.07234029459550   -2.75479022323315
C           1.13466272147821    8.79843623793075   -2.13426367240323
N           1.55638669181519    9.91383146466874   -1.30288814585563
C           3.20548120523433    9.13235291319193   -3.48112766110330
N           2.57271856376604    9.49993784771501   -4.73298248105834
C           4.28038758499902    6.45484005403959   -2.34595439840165
C           4.62867512293971    6.13902937563146   -3.60661505886098
C           5.77967018605493    5.23947066332931   -3.90426231321488
C           6.54177688566955    4.78782727412640   -2.69539294865563
C           6.15167777327198    5.07273345450903   -1.44060801194748
C           4.99578885578501    5.85870069553069   -1.21142333055456
C           4.29260037096999    6.19296744052694   -0.07606083310991
C           4.49272446211916    5.84972857373689    1.28249990895473
C           3.60775696796399    6.25866926340731    2.22418931801334
C           6.71036350857294    5.92255036520496   -4.87190082688674
C           7.08757102967294    5.37905290730721   -6.03339006239708
C           7.99157508175704    5.94795249432465   -6.98905285225733
S           8.91865041121646    4.87061546544026   -7.95571508968245
C           9.76319022481078    6.17625631104357   -8.74080064969309
C           9.28164619085948    7.42591034338249   -8.26425081297709
C           8.26351183188803    7.29645601138612   -7.28197409845407
C           7.61460770969236    8.44026884158293   -6.78134596245053
C           7.99475119546664    9.69545298064376   -7.18817453850391
C           7.32363369755579   10.96317446602411   -6.68647857917320
C           6.17763440147304   10.67592025231926   -5.71206673468677
C           8.36750994687881   11.82493196585957   -5.96248834828081
C           6.74945077367153   11.73388040274313   -7.88386554830883
C           9.05195759249061    9.80567919615591   -8.11845246605285
C           9.67560101137146    8.71279548792370   -8.65799328822025
C          10.76502687007271    6.05732393704716   -9.69790805616732
C          11.31662242376209    4.93942487907486  -10.28826054115940
C          12.36420310692238    4.94465140726622  -11.28433927899242
C          13.00823035895545    6.03664651505695  -11.81585650829297
C          14.02828798971497    5.95698136313526  -12.78507312031700
N          14.86425776326214    5.96703188050808  -13.57287963933095
C          12.75743781716968    7.38267857312538  -11.48595757992816
N          12.61189884365467    8.50372356851672  -11.27421846156063
C          12.63381338214549    3.55421441083192  -11.64563173304910
C          11.76862299861595    2.71520939629590  -10.88641163069659
C          10.92843666488083    3.55671030350063  -10.02018177138766
O          10.07484261248027    3.16547047409478   -9.23695482754463
C          11.78413032392377    1.35709300313611  -11.00990878196775
C          12.68612913123234    0.75947992424481  -11.91985367555447
C          13.55570853204666    1.58956341238037  -12.68283238310719
C          13.51550601472920    2.99610842668517  -12.53101308201748
C          14.45037179716478    0.98414045578182  -13.58757711940027
C          14.48560591265212   -0.37636043559977  -13.73383449844146
C          13.62855250743987   -1.19272390190578  -12.98207563896653
C          12.74786145303975   -0.63647804963845  -12.09386405457535
H          -7.20026153854098    6.77590369141809    3.87650766413620
H          -4.80287982438690    7.20463775975300   -0.47597711766571
H          -6.72813065468908    6.27851929826658   -1.62231442886503
H          -9.01298552523539    5.36022111316985   -1.57405016702997
H         -10.22077888204576    5.14755010013735    0.56244641539471
H          -9.15112504468172    5.85051647632153    2.66706975297173
H          -2.36254210223971    8.27474596057954    5.20918355052243
H          -0.69049577741930    8.80484773471950    6.50935474364447
H           0.89556119440228    7.18444957515414    9.01158553937946
H          -0.55183130558868    8.12137174195343    8.64689187934615
H           0.38524580096164    8.48384322261043   10.09232807671683
H           3.18327174222646    8.30213451140356    8.97560070727312
H           2.54214142932748    9.58752418907099    9.99051483434167
H           3.32575232177193    9.99732241446735    8.47107318069565
H          -0.33350959795131   10.54746358482955    7.89000903943278
H           1.26290641558093   11.27318936059333    7.72038968031115
H           0.61334149552900   10.92649912572123    9.32547713675720
H           3.57464296660329    8.57692621953277    6.75404626663144
H           3.70839955375738    7.82000283128879    4.46097586141926
H           1.31753723888004    7.89198394839984    0.30686275664901
H           1.93865293717232    7.40217993890749   -3.52923057193063
H           0.49132764291308    8.06299604877356   -1.62181209578276
H           0.55517985247944    9.22427693228012   -2.95739635742775
H           2.13668480386904    9.60172094134676   -0.53203087213626
H           0.74910853430900   10.38672231259792   -0.91229826684518
H           4.23361514201434    8.75599534556693   -3.60631403504975
H           3.23443524566604   10.01768596248621   -2.84441762028417
H           2.70096689363920    8.78108446834645   -5.43697289599627
H           2.94682017126834   10.37011631001670   -5.08863258094177
H           4.07425183310975    6.49736850050081   -4.46323184953971
H           5.37794256334627    4.34587273841879   -4.40773758111274
H           7.42162757445135    4.19480983519960   -2.89245182203726
H           6.70765436148262    4.69833461166511   -0.59324582512812
H           5.34491879242942    5.24332425204267    1.55224091196811
H           3.72793697529568    5.96566264762251    3.25534375851135
H           7.10384891053347    6.87018983008061   -4.53698449292428
H           6.74433234475130    4.38081498515594   -6.28068847153633
H           6.79679078518024    8.30005528317454   -6.09697216511666
H           6.53452555761584   10.16005108273002   -4.82331500782012
H           5.40346577138308   10.07815778385118   -6.18836928674256
H           5.73024726507045   11.61505751077154   -5.39357832425603
H           8.78984900802518   11.27870189124125   -5.12151993408584
H           7.90344789779963   12.73332461351665   -5.58525947750888
H           9.17898124257666   12.10873405226733   -6.62641876458569
H           6.02931317946121   11.11800639510223   -8.41881758731935
H           7.52872730572067   12.02878250988131   -8.58042639657169
H           6.24494216367841   12.63379670407402   -7.53949137888183
H           9.37330963222977   10.78437484860845   -8.43831143084726
H          10.45845218858642    8.85257290328506   -9.38766227597686
H          11.16254593805510    7.00818138966962  -10.02491876671046
H          11.11659588076221    0.74421114121225  -10.42235526346372
H          14.18765158880201    3.59466244895560  -13.12482635899443
H          15.10858086834982    1.61711669260446  -14.16462547223177
H          15.17460259166554   -0.83031668678662  -14.43036718400490
H          13.66885028077160   -2.26428392369686  -13.10967020331935
H          12.08504442400383   -1.26036579382096  -11.51187725415865
