92
 SCF done       -193.649568062679          0.000837139917
C           2.32375485742913    5.34146307430021    2.55797702175788
C           1.63153918939543    6.51745836123394    2.44097105911585
C           2.13224535781682    7.76610126850936    2.87353273127332
N           2.48419875704935    8.81532054755816    3.17710181508119
C           0.32057665791967    6.67080693209536    1.96153263540942
N          -0.74617470041278    6.92210374837881    1.61281373742917
C           3.57449512746554    5.19425807177413    3.29862813113213
C           3.74995355095846    3.81891617776978    3.63170849936196
C           4.82166798590593    3.38514502280098    4.35792107906492
C           5.79298823793021    4.32126967049583    4.77788155309128
C           5.63577344032904    5.69448428827134    4.42954843163421
C           4.51016375544886    6.11623206577941    3.68520482639493
C           6.61913833394017    6.61667400961940    4.84147180866496
C           7.70514286024838    6.20465576248979    5.56501956248313
C           7.85806049022367    4.85309688541825    5.90892198188389
C           6.92204672936045    3.93140194306691    5.52442759122305
C           2.65920796960542    3.03406683512394    3.03598943963547
O           2.43488837869353    1.85293166728166    3.13739961966423
C           1.89564998378700    4.00957158824106    2.18720903922936
C           1.18507950708472    3.48403097234653    1.15388793489392
C           0.67413538199431    4.06407267806658   -0.02877843337487
O           0.63599817686376    5.39311674043660   -0.27785108921178
C           0.17393845630778    5.58975571765942   -1.52765130590480
C          -0.07689329639622    4.36160647771320   -2.12867671479713
C           0.23184177704712    3.37627125839295   -1.16409825140255
C           0.14211100115925    1.98002813808089   -1.29176438380715
N           0.08664312597563    0.83962483569311   -1.37871550853249
C          -0.61293298720369    4.14333679702138   -3.49907077609104
F          -1.63696281711645    4.96767452837710   -3.78011640127459
F           0.31603993149506    4.37323163345170   -4.45111750774331
F          -1.05390268809484    2.89971203047483   -3.69189598457672
C          -0.01756288745675    6.92131008755802   -2.00024454723829
N          -0.35535106443138    7.93311544585903   -1.12836843507229
C          -0.45834990388730    9.07923228051500   -1.84346759844973
C          -0.74840568933819   10.43703799957963   -1.75186716156107
C          -0.54590565142770   10.95951804366432   -3.03601378909057
N          -0.15353837097357    9.94798504090018   -3.89017735991376
C          -0.11732125671740    8.78676358718995   -3.19364452239645
C           0.13979364345344    7.42261688925611   -3.29527759299753
C          -0.62340414542698   12.29426461375806   -3.49903910150884
C          -1.20394487489772   13.33424522317202   -2.84610724846738
C          -1.14546355421190   14.64351878009487   -3.38569709073728
O          -0.38273312208169   14.89040479187311   -4.45701841059809
C          -0.45771876597598   16.19606559265840   -4.77094976345397
C          -1.32206014398520   16.82608234106837   -3.87514962493652
C          -1.76361694921291   15.83462936493829   -2.97326142449574
C          -2.63798313726880   15.96001427763133   -1.88357941048975
N          -3.34607481584459   16.02404424668299   -0.98493940676791
C          -1.67753731891109   18.27255636863073   -3.87622838670979
F          -0.57962478402068   19.05515648485353   -3.91671767137661
F          -2.41513637760111   18.61079588992934   -4.94684056077222
F          -2.36855178830821   18.64004915830317   -2.79580342724773
C           0.31382155929038   16.77207402618126   -5.81133933235553
C           1.34879912457849   16.20390112616066   -6.48904779741407
C           2.20243263629530   16.93292166764170   -7.41996751275459
C           1.85649168023952   18.04164719393214   -8.14116470264378
C           2.72825051517316   18.68667109185777   -9.04475032323865
N           3.39903226265375   19.24667578478435   -9.78845615346700
C           0.57610657564903   18.63859104467020   -8.13535773684289
N          -0.45003915985375   19.14744273535434   -8.20283486400620
C           3.47063934825210   16.22089668343823   -7.49813469155572
C           3.33082498467759   14.97848641189489   -6.81674314767692
C           1.96598518948708   14.86021539801306   -6.27420000643390
O           1.47146801738379   13.86477481695965   -5.79333791343455
C           4.36411937712168   14.09158305315384   -6.71610639075316
C           5.61327024784120   14.42282328313907   -7.28598669727616
C           5.76310682176687   15.66836728464301   -7.96257892923515
C           4.67075367778953   16.55973761634564   -8.06476474137691
C           7.01803001583932   15.99230773230705   -8.51730520676799
C           8.07531512938725   15.13071939743398   -8.40776314946933
C           7.92684795755010   13.90524528926945   -7.74084745521932
C           6.72168907214045   13.55810056130334   -7.19350523992520
H           4.93033126003848    2.33931912639508    4.60326468770385
H           4.42605914479026    7.15983839261263    3.42576052229964
H           6.49573562266319    7.65648661793437    4.57669529033615
H           8.45278138193908    6.91847655143849    5.87616926944597
H           8.72118699422483    4.54577898254334    6.47990396906590
H           7.03463411987317    2.88967240389936    5.78617437196694
H           1.10024966631731    2.40066629739904    1.17285405795042
H          -0.61240602906130    7.77983124995804   -0.15933059741819
H          -1.03581377604966   10.99543015150131   -0.88506703683502
H           0.03161494058290   10.07418427927485   -4.87091053851121
H           0.43122274324865    6.86263444990280   -4.15959817400420
H          -0.16525561883607   12.49844090279731   -4.45938061302984
H          -1.73278415926425   13.21112238511912   -1.91422632826383
H           0.08216199638961   17.81025191402409   -6.00959864688064
H           4.23467553070036   13.15361948357915   -6.19656694206514
H           4.81556429213416   17.49804332941336   -8.57626141660538
H           7.12756761403331   16.93608349713808   -9.03075417875429
H           9.03279572310286   15.38878397673746   -8.83444624279024
H           8.77211118822862   13.23805487306779   -7.66276028059881
H           6.60148075833240   12.61618270089474   -6.67843878872562
