100
 SCF done       -191.567760291951          0.000604664311
C           3.06363478128340   16.22922360881973   -3.75251515415270
C           1.93991995843671   16.37275243773257   -4.52122274401075
C           1.70098252787068   17.47331834037105   -5.37127517889216
N           1.45619583427016   18.34113900153903   -6.08134428426837
C           0.85406023315762   15.47060959876901   -4.53195639533142
N          -0.07677582208188   14.79981639119205   -4.56349835099918
C           4.15128509011434   17.19015748802668   -3.63001144090387
C           5.04266471621035   16.74527842462073   -2.61044446238455
C           6.15743797801455   17.45587458261460   -2.26761358570791
C           6.43712526947488   18.66585727003998   -2.94076413501765
C           5.55399032801471   19.11425460234178   -3.96583431701408
C           4.40823956019419   18.35726673454903   -4.30019310808622
C           5.84538582693929   20.32133340828598   -4.63336848019253
C           6.95416011480481   21.05267075936978   -4.30460525242991
C           7.82262704723034   20.61072737451015   -3.29512840192198
C           7.56973701859901   19.44301332597732   -2.62762665724550
C           4.56562034157252   15.46695700095092   -2.05950165779173
O           5.09036208006379   14.79585019568536   -1.19856020360138
C           3.33897781359611   15.13356504170179   -2.83866937865930
C           2.72566166939961   13.92282951239681   -2.80785772092433
C           2.94138205172722   12.89213396833813   -1.85358447691651
C           3.20292127157581   13.00121083267696   -0.40826028084462
N           3.25500401207453   11.85543414517940    0.20634820284531
C           3.05070985931038   10.90594751670312   -0.74814248686891
C           2.85510482672616   11.53494662815506   -2.06136312667694
C           2.60890968569829   10.53557439898500   -3.07172011215428
S           2.30382479089070   10.80412469801719   -4.66371379128246
C           2.62952708103246    9.29754516253342   -2.34191285314830
C           2.89347375105782    9.55094642323119   -0.91721794471912
N           2.86068434437541    8.38746523428342   -0.20564154748416
C           2.57817066546777    7.45555245438665   -1.06676050004635
C           2.41154712873546    7.93625984320438   -2.43976482308668
C           2.11801617699801    7.14700141262103   -3.56665898333760
S           1.64127315320528    5.42687506957761   -3.38537900498740
C           1.49888425103725    5.36587973337274   -5.08752162989314
C           1.82459936488284    6.61494898940559   -5.65619204820097
N           2.15214321412179    7.56465707397191   -4.80269080246390
C           1.72206463888111    6.56638219417084   -7.14492026959486
C           1.29628795818606    5.14485327514346   -7.35885056114432
C           1.16826390378469    4.47870063793280   -6.12701557728003
S           0.65429725641320    2.85637266371963   -6.31098597535968
C           0.61986335303725    3.05166460060067   -8.05616900573369
C           0.99593847695942    4.33746997331742   -8.44009451784641
C           0.21703640973374    1.95866406885822   -8.85434712408080
C           0.25911772986670    1.93537465859000  -10.21470868441522
C          -0.18566344083738    0.85678004663804  -11.01027165465382
C          -0.90718362827979   -0.35353269859393  -10.58307501971464
N          -1.22785805215431   -1.15934272540374  -11.54867681554507
C          -0.74867870969075   -0.57627098505132  -12.69063309868255
C          -0.08528563981098    0.69656895360658  -12.37856046165538
C           0.42606579473829    1.29617073080081  -13.57668138792953
S           1.13791532358346    2.76931431614431  -13.73415224044402
C           0.10233446273211    0.34349193892773  -14.61582669615392
C          -0.67335162789265   -0.77451187994707  -14.04355450455148
N          -1.05760803133296   -1.64143985805537  -15.02247315800281
C          -0.59544242350091   -1.14602449456837  -16.13105646333988
C           0.18378916802612    0.08899773293458  -15.96224145718871
C           0.82289184783456    0.78860696597862  -17.02761053374556
C           2.04512811524253    1.37333034702333  -16.95687297055681
C           2.69293564223439    2.16437436806479  -17.99255797975677
C           2.08780434924840    2.70123130540126  -19.09696202027213
C           2.75498429422811    3.48966912084968  -20.05891392273941
N           3.24290116484606    4.12583438124466  -20.88017789675173
C           0.72087989394266    2.56178198475598  -19.41907026349385
N          -0.38031599912944    2.49669716432544  -19.73719916264125
C           4.08416843633667    2.35120660742439  -17.60515711175303
C           4.29053888672080    1.74095317938196  -16.33505237145110
C           3.03845017460433    1.12563585200725  -15.86830961439287
O           2.88103417471198    0.48753016260459  -14.85155703654447
C           5.50661609492204    1.75781865157746  -15.71462612180590
C           6.59459973671353    2.39666489000755  -16.34928400765168
C           6.39894167061558    3.00397504061533  -17.62377305814088
C           5.12774632325931    2.97245699860929  -18.24057101279156
C           7.49482621943061    3.62988892175661  -18.25261958012643
C           8.72457167429128    3.65571435762003  -17.65333245553856
C           8.91557512828030    3.05857186392783  -16.39809035940204
C           7.87306856711723    2.44381391685451  -15.75936088297402
H           6.81748938437386   17.09858011578292   -1.49111076033449
H           3.76272951208720   18.71807023556889   -5.08531086411292
H           5.17315096860826   20.65781099553992   -5.40892085292423
H           7.16822123935108   21.97640159838127   -4.82083835549365
H           8.69313374737610   21.20016068164486   -3.04926836365949
H           8.23500280917171   19.09776924086710   -1.84985466608114
H           2.03059276790445   13.66164056658784   -3.59920702756212
H           3.30523985094693   13.91934229566733    0.13886022358189
H           2.50044379594734    6.42593108522463   -0.76218705592663
H           2.67655873551933    6.79537441688444   -7.62227223147105
H           0.98851737659663    7.28199021390579   -7.52108512814270
H           1.02881096124387    4.65327386326251   -9.46639375221849
H          -0.13370574157859    1.08727397296550   -8.31831310395326
H           0.66245813780990    2.77938932162783  -10.75704637996859
H          -1.18492213680229   -0.59157327439241   -9.57110162383757
H          -0.76236067157291   -1.64177593679042  -17.07153758332321
H           0.27981193846381    0.79579164453011  -17.96563895299289
H           5.63503113184106    1.28858423093319  -14.75045650327159
H           5.01348564538559    3.43566034337211  -19.20779727238560
H           7.34278716251889    4.08941337371931  -19.21818338299958
H           9.55778498723479    4.13661490003035  -18.14336787479647
H           9.89306408082339    3.08753234475384  -15.94036134725234
H           8.01383700313273    1.98191585592341  -14.79307698609139
