93
 SCF done       -185.385642349921          0.000831817530
C          -3.23153796531688    3.34798123622133   -3.31340285249262
C          -3.83086239450355    2.63961803742689   -2.30958576692622
C          -4.22309115883114    1.28817314642207   -2.42516000897208
N          -4.56383802694075    0.19347660703786   -2.46370518266994
C          -4.17406891197075    3.17824428236209   -1.05081657819257
N          -4.47873059364611    3.57050660033790   -0.01600879231074
C          -2.90485640550548    2.85453431878715   -4.64438342366172
C          -2.48995330000672    3.95144645515870   -5.45617419185036
C          -2.10118898561724    3.78259486379583   -6.75479727347926
C          -2.09910789834196    2.48421637240000   -7.30836169303048
C          -2.51666196776341    1.38201280977269   -6.50510213402359
C          -2.92018678411784    1.58733574204929   -5.16654780062848
C          -2.51378617334460    0.09077278352126   -7.07150351928307
C          -2.11497870141193   -0.10460961447632   -8.36583384833440
C          -1.69967505680574    0.98015884270938   -9.15344834427145
C          -1.69191273853624    2.24706622965946   -8.63630811818858
C          -2.55409343974501    5.18956278207095   -4.66972945405004
O          -2.50587881179790    6.32976957151585   -5.07191837836764
C          -2.80831463180106    4.74185358138624   -3.26072109494152
C          -2.59245580282534    5.50357308213472   -2.16535239088407
C          -1.93240614856592    6.77242285863709   -2.19485024974500
C          -2.26639000652775    7.93583364145663   -1.35613779541116
N          -1.52144915873334    8.97692511016888   -1.56984566518489
C          -0.63108257354296    8.60292094042516   -2.53456972707446
C          -0.85208172405218    7.19829105510381   -2.92204367651123
C           0.13857673101824    6.79402252760224   -3.88792884111775
S           0.41843324152415    5.24684839180573   -4.40199947316389
C           0.87370823766083    7.99051166839248   -4.18348294938292
C           0.39028485212277    9.08131413444520   -3.30274341285851
N           1.09151747820132   10.23071589671562   -3.52328534276570
C           1.94496052349532    9.94282511099545   -4.45140387148348
C           1.88233166431968    8.55058729037056   -4.94326346129806
C           2.74854938026878    8.12597443753763   -5.98111280130259
S           4.11933963818973    9.13846582267522   -6.34936785389537
C           4.61302852327277    8.12691805623832   -7.65272893994700
C           3.74436441193447    7.05405870095981   -7.82527577814912
C           2.69399258622952    7.04730367280332   -6.87055713824261
O           1.73300044714537    6.11783821732617   -6.91527924605500
C           3.86074433672211    6.11806042867627   -8.97967834998202
O           4.70081337385559    6.25389759682684   -9.83133830956310
O           2.97664829982616    5.12741213435717   -9.03256903726517
C           5.80124622119762    8.49738484092635   -8.34773995808562
C           6.85544427291117    7.63382638917422   -8.91194788317855
N           7.87463551808621    8.28798783036764   -9.37913671632885
C           7.60372234577313    9.60867894833008   -9.18577247115402
C           6.29478360052534    9.76781634684563   -8.51729269216231
C           6.00465027334738   11.16705564846334   -8.33658004568701
S           4.57769034448240   11.86979257758091   -7.90964080445393
C           7.19861816451858   11.83388043438079   -8.77257359495102
C           8.14708947049287   10.85542917158649   -9.34734766039685
N           9.24986343591138   11.49635297533927   -9.82409665770434
C           9.05429669064369   12.76252051059939   -9.59526270693416
C           7.79170662509626   13.06401874080960   -8.91066058793513
C           7.29133984857833   14.35212557855005   -8.54567627387934
C           6.52665070047951   14.56697347441325   -7.44970949404755
C           5.70343499475628   15.72976974911001   -7.14475454942928
C           5.80297839144462   16.97171916530620   -7.70790747032339
C           4.96938601810723   18.05921763652549   -7.36791753679401
N           4.32450002951469   18.97795657330896   -7.12961052548457
C           6.77671128743179   17.33681006258021   -8.66194183022012
N           7.55068100834941   17.68525721301607   -9.43439987182556
C           4.74984361636600   15.31806795096610   -6.12331840095687
C           5.11524047984552   14.02635278487903   -5.64184560664238
C           6.32030808750717   13.56920394926595   -6.34773703011687
O           7.05715626909494   12.65624637184585   -6.05048332761544
C           4.38522569803407   13.38019091364219   -4.68465135642409
C           3.21865951586394   13.99210710437058   -4.17639924766597
C           2.84455606113457   15.28266539893289   -4.65653742073039
C           3.63158338324415   15.93824200413384   -5.62989434706539
C           1.67372293558631   15.88175990182939   -4.14853817543111
C           0.90160343301746   15.23493972573603   -3.22184867171867
C           1.26703969308270   13.96315071968131   -2.75542691341074
C           2.40406331373021   13.35779889493255   -3.21732934596779
H          -1.78885061922500    4.62892322699673   -7.34849321727562
H          -3.22210751219579    0.73310021485118   -4.58112849287519
H          -2.83329890490909   -0.74144654162461   -6.46179955693054
H          -2.11590634016498   -1.09726445554478   -8.79006829561134
H          -1.38557774131270    0.80692122647835  -10.17157053288250
H          -1.37335939973293    3.08563370611761   -9.23774402122591
H          -2.89367811448099    5.15363716355317   -1.18546654140775
H          -3.06360350342568    7.96108519411164   -0.63395964751605
H           2.62211124369609   10.68739342826314   -4.83412020646522
H           1.26450393303028    5.98072566074358   -6.04855815089338
H           2.32772632321427    5.17028545654135   -8.30451061670484
H           6.83758818744464    6.56053281363852   -8.92355695688632
H           9.79319070082154   13.49389048980611   -9.87352741728074
H           7.50613837082578   15.15933218137342   -9.23491715723920
H           4.68932985054699   12.40536826051099   -4.33177338215596
H           3.32067351872734   16.91171557508246   -5.97559517372581
H           1.39666421749933   16.86109244291221   -4.51028595727320
H           0.00359749179676   15.70058672117818   -2.84451128463207
H           0.64506605403121   13.45978946123689   -2.03165606125650
H           2.68234615048981   12.38003276349368   -2.85527538818948
