112
 SCF done       -198.741607118701          0.000432341921
C          -3.74066189138227    7.96020271539479   -1.90934521412886
C          -3.42386919949691    6.88320349258231   -2.69688810291220
C          -4.23971966639207    6.39964745995415   -3.74200405094768
N          -4.84782507607516    5.95294612140108   -4.60726890466019
C          -2.24777363882593    6.11075937059446   -2.61137172456797
N          -1.31260445797447    5.44228898892039   -2.61845953829157
C          -4.94506097076604    8.77010134430610   -2.04295472475980
C          -4.89865243174574    9.81677150657785   -1.07957586297321
C          -5.88852033830441   10.75115728489538   -0.97667082352934
C          -7.00025360098044   10.67466987505685   -1.84451396568446
C          -7.05928063055686    9.62637360025366   -2.80783180714462
C          -6.01473139025528    8.67817357220652   -2.89513285679498
C          -8.17468944708770    9.55686961684035   -3.66750110352864
C          -9.18319426483439   10.47753183786360   -3.58134741201438
C          -9.12320896812083   11.50985975412291   -2.63309897257297
C          -8.05521556007077   11.60608210633782   -1.78280538749669
C          -3.67483281831788    9.69193061355796   -0.27069260697047
O          -3.32171853828501   10.44054470117840    0.61569875971582
C          -2.95750438170206    8.50401243448119   -0.80814251760063
C          -1.71297336743713    8.08174503484797   -0.45497528411997
C          -0.91858601758835    8.50294357876927    0.66047272954339
C          -1.47621688960260    8.81802159362936    1.87195155574909
S          -0.36433862576581    9.14654378511708    3.12463159391496
C           0.95803237970300    8.90601299964419    2.01553935486751
C           0.53096324808278    8.55563141109003    0.70949251539041
C           1.52007002070982    8.37811069481184   -0.27228813958234
C           1.19479096393105    7.97778235422067   -1.68256489241197
C           0.51599035050652    9.10668288414017   -2.46050282870591
C           2.85456499986026    8.57169707859412    0.12178573447720
C           3.11614269586344    8.83978707929451    1.49254278441665
N           2.20096857113548    9.01819498397318    2.41863455208314
S           4.80694389063338    8.89368063536797    1.86897009684533
C           5.17507640202414    8.60987310237340    0.20667070759253
C           4.09647945341646    8.47546071301896   -0.60812395430832
C           4.29731979455389    8.29643783566193   -2.04189322180907
N           3.83555236345935    9.21638581665095   -2.95906117297085
C           4.22792006126652    8.81299311252480   -4.19998675048433
C           4.15785521694982    9.11762602268021   -5.56149505828711
C           4.85149333427383    8.10389222072202   -6.21778445515408
N           5.33662395843981    7.20500174320742   -5.28959947344336
C           4.95698897537856    7.61780784990684   -4.05208515800418
C           5.01034121386957    7.30211618294205   -2.68514609093768
C           5.03842165395757    7.96903093853013   -7.62662569715466
C           5.80298883541224    7.05030021063563   -8.24244084992946
C           5.86913008928011    6.93106838910604   -9.68934302066413
C           4.73926866890776    7.01774545249128  -10.44303074387300
S           4.96926525392694    6.81625504169053  -12.14258143290241
C           6.67138480987495    6.63128298832496  -11.88180356158432
C           7.03705118323256    6.71996167667063  -10.51148307222826
C           8.40116068637533    6.66668525474166  -10.19142094458372
C           8.85544329487748    6.62808138719960   -8.76475409016629
C           8.78208874940151    5.18648894508915   -8.25061467962003
C           9.30185174814704    6.55593050803561  -11.25949171492146
C           8.77017460282824    6.37334430718795  -12.55987484948876
N           7.49985928183765    6.41822217051849  -12.88091698420369
S          10.00058877295048    6.08789051284292  -13.75834182487961
C          11.20957673290235    6.23891439671442  -12.55128229973655
C          10.74485235152040    6.51198933236376  -11.29487115933179
C          11.65890303433680    6.87990828956530  -10.24574222768721
C          12.87948144024515    6.35365486431092   -9.99564709832125
C          13.54077863995949    5.16089051757966  -10.49436720196007
C          12.93296295817903    3.99799446000488  -10.88312129871527
C          13.63261125608297    2.84481056615229  -11.29320004015166
N          14.15735777300207    1.88807324825483  -11.64897336366033
C          11.53967148088554    3.79649843869827  -10.82487216246696
N          10.41825794706840    3.56895203578881  -10.73106433985839
C          14.97216525911415    5.35011041487273  -10.29491597888505
C          15.17109882786894    6.50380085373815   -9.48000767154692
C          13.86752808233501    7.12388755236740   -9.18629964028380
O          13.63121649578944    8.08043990065706   -8.48417953815058
C          16.41946944464497    6.90846964090486   -9.10371981373140
C          17.54416592193298    6.17499471060208   -9.54390101428484
C          17.35270727852261    5.03111314479290  -10.37221811876200
C          16.04813533581449    4.62819737476642  -10.73788314385993
C          18.48412963029769    4.31554240837906  -10.81416499324976
C          19.74469950394814    4.70774621396922  -10.45482092907412
C          19.93221485727327    5.83259812066501   -9.63758346100691
C          18.85561970189420    6.54983192652591   -9.19118668864891
H          -5.82445635902109   11.53682378485107   -0.23842319959137
H          -6.08941103723127    7.90069216014383   -3.63842843345484
H          -8.21630039363423    8.76044556409212   -4.39600269872846
H         -10.03340339042090   10.41559054082991   -4.24390281460712
H          -9.92746390311552   12.22830881623443   -2.57979178512298
H          -8.00346093106795   12.39841228651981   -1.05038740730633
H          -1.26425504531894    7.31751068624558   -1.07007145456154
H          -2.52238333112997    8.81643797262983    2.10471074931640
H           0.55581909157705    7.09348174815815   -1.67710621934060
H           2.11059236016960    7.68783884907222   -2.19273866442165
H          -0.42907082245203    9.39066689949771   -2.00293608981109
H           0.32592458354908    8.78745498846245   -3.48212192185816
H           1.14753559309988    9.99173249296546   -2.48655056668942
H           6.20268202150955    8.57197334636808   -0.09882334920634
H           3.34156556235490   10.05896961613195   -2.72461095211975
H           3.67934093867138    9.95290052690776   -6.03250030579490
H           5.84517398164831    6.36765821145049   -5.51063300311030
H           5.47030618732892    6.45800921967483   -2.21219346575268
H           4.51880594917753    8.70569477254078   -8.22404097629915
H           6.35991162615082    6.32871786907066   -7.66487960000476
H           3.74246547222381    7.16129456982814  -10.07366280309023
H           8.22660043156041    7.28468078328901   -8.16132888773069
H           9.88378047583884    6.96804583308885   -8.67457826726622
H           9.09165291609239    5.14329263391594   -7.20856878854840
H           9.43877460258507    4.54869553569961   -8.83831816393218
H           7.77395858788384    4.78803787607182   -8.33891196948734
H          12.24114175805928    6.19574760608703  -12.84725483954464
H          11.41596653173107    7.77364617659986   -9.67934550968939
H          16.54854058720586    7.78076694241936   -8.48030514413875
H          15.93069965809718    3.76338025652529  -11.37232619371875
H          18.33429279704376    3.44852582613899  -11.44064657349887
H          20.60488435309710    4.15296257569721  -10.79828771665971
H          20.93398904965654    6.12825708921573   -9.36405532974215
H          18.99399278973065    7.41693463919317   -8.56202033264803
