114
 SCF done       -206.096339004774          0.000964795463
C           2.95029877658488   12.27172733701294    2.76957062093407
C           2.78696738856883   11.06438361762899    3.39722145360669
C           2.65497022733267   10.92191285506824    4.79421854401827
N           2.56424144935759   10.76058647834482    5.92686497964731
C           2.61690274355048    9.84077284889149    2.71669394736554
N           2.39581287683195    8.83458148748264    2.20970589165219
C           2.81212378060296   13.58426539128908    3.38698915654512
C           2.59906148149628   14.54987417646518    2.35810327860183
C           2.39192511247689   15.86835811041774    2.64615522812524
C           2.39452928242724   16.28877759700880    3.99531906014797
C           2.61867158879025   15.33042983615941    5.02636055765870
C           2.82759482810600   13.97109078952804    4.70045450095502
C           2.61997246814531   15.76304090677665    6.36807122712098
C           2.40809603494656   17.07856316976159    6.67906487799883
C           2.18823593596202   18.02150154772660    5.66375378360540
C           2.18123405302372   17.63522710420835    4.35077617687016
C           2.65266136087500   13.88824765236035    1.04164165589332
O           2.47265600797573   14.37313372620632   -0.04969524902472
C           3.05230917090761   12.47971369061903    1.33722728294685
C           3.53818252603445   11.66812698406601    0.36684527924966
C           4.28588680698745   10.47623537038665    0.58384424086287
C           5.26789298767731   10.26229359758109    1.65711964861294
N           5.81382698202156    9.08423218701584    1.65572550640606
C           5.22692585246474    8.40822558353873    0.62723737780656
C           4.29512082644100    9.28690734637047   -0.10148676522747
C           3.63309454504030    8.55430648532328   -1.15158639033543
S           2.55298201375263    9.13522687405751   -2.24216133087858
C           4.15164597998322    7.21515948475415   -1.02345715094113
C           5.13850226504624    7.15933016595135    0.07621399790810
N           5.59037082934916    5.88487308483265    0.24821849954311
C           4.97741669009242    5.17300047267686   -0.65237218234731
C           4.06052147213402    5.94104910235154   -1.51110565659307
C           3.17808674736674    5.37462223498572   -2.49903851160171
C           1.84719340574662    5.68191505753342   -2.45887910682926
S           0.87383977585127    4.74267032879523   -3.50757805566353
C           2.28924260475008    3.91199658976260   -4.08162023068179
C           3.47612653284761    4.37486044902689   -3.49604333799062
C           4.71355670032727    3.92153808892487   -4.01137747612807
C           5.96699881306331    4.65249510295771   -3.60218881586889
C           6.13355565227678    5.91364910936310   -4.45357472333079
C           4.74471973567526    2.92028983416028   -4.97450162184390
C           6.06154285269723    2.48283534008242   -5.56283523618973
C           6.65243796145680    1.30239540495748   -4.78756805844804
C           3.54067948268296    2.31307512882618   -5.41757897327306
C           3.28485724243958    1.16424613641981   -6.26864435323791
C           1.93905811119681    0.99597866731578   -6.48895280490838
S           0.92853886757226    2.13366990570200   -5.72123897510381
C           2.32343168371486    2.88040361242846   -5.00401596425722
C           4.21837118881767    0.20728256407746   -6.79936911416609
C           3.88575401432504   -1.07279316319313   -7.08957651867348
C           4.78574432054132   -2.04249561748169   -7.59908778513063
C           6.20993874226487   -1.89519909431107   -7.93515805415228
N           6.78078593084817   -2.98237348151731   -8.35942654140183
C           5.80539317567601   -3.94207057896978   -8.34516755247384
C           4.53253755262344   -3.36804297150037   -7.88008210045406
C           3.51226756489811   -4.37640489065929   -7.85652268400560
S           1.92910367152625   -4.23437742504517   -7.43121306854664
C           4.19735131200561   -5.57285695916797   -8.28290349870380
C           5.60554883185812   -5.27446876693133   -8.59482843936036
N           6.25386048657980   -6.41116968036956   -8.97895045611067
C           5.36798499885662   -7.36075657260504   -8.94394400988735
C           4.02970546024049   -6.91562204464788   -8.51293748828393
C           2.84546835777411   -7.68039589916233   -8.31679519697544
C           2.42934632964133   -8.71257663781933   -9.09251310358846
C           1.24964117710516   -9.53983081674495   -8.89768216204689
C           0.51035595569264   -9.63403971792486   -7.74969398961307
C          -0.61671822614563  -10.47076405663479   -7.60343926130376
N          -1.54000378925391  -11.12947987359546   -7.42870648981210
C           0.79560304438411   -8.94508710548987   -6.55073084722535
N           0.98535443997915   -8.43966767761811   -5.53790681578444
C           1.04360030243071  -10.30654128517033  -10.11917552200458
C           2.10796026679608  -10.02314313989921  -11.02412114832566
C           3.01936035894817   -9.03828008087793  -10.42210250265872
O           4.00685516901774   -8.54720360213162  -10.92368932363649
C           2.18354818046602  -10.60931714354676  -12.25532953520563
C           1.17686459956832  -11.51888563246870  -12.64786569370886
C           0.10322318732478  -11.79964739543650  -11.75329412755043
C           0.05330948113285  -11.18079527762503  -10.48357529750924
C          -0.90157476228024  -12.70089683056793  -12.16054704124282
C          -0.84934911874760  -13.29778587397418  -13.39072072014964
C           0.20936608875344  -13.02271556093982  -14.26939582572676
C           1.20138727484356  -12.15288455191034  -13.90572430521683
H           2.22529638819594   16.58294296928325    1.85386000477982
H           3.00410996978956   13.26723816401861    5.49887061126671
H           2.78686132139683   15.03255598447767    7.14594899435447
H           2.40828077425005   17.39982781045711    7.70978749002685
H           2.02425926416128   19.05560580179339    5.92720124011021
H           2.01184225079200   18.35695154717897    3.56523241634164
H           3.38276511756089   11.98063955667993   -0.66075385598470
H           5.56835968128698   11.00784435824959    2.37355334418049
H           5.09895202732057    4.10311864383305   -0.68161780832490
H           1.37937126522199    6.38914878468777   -1.80174233922185
H           6.84791328127962    4.02018798578823   -3.69183562632140
H           5.90776637722900    4.95359664142589   -2.55725013527071
H           6.19004544304390    5.66512977310300   -5.51126190852374
H           7.04162285560752    6.44104960381175   -4.17093305950722
H           5.28699357883062    6.58145934719519   -4.30813035701128
H           6.77178851598887    3.30747740432060   -5.55415499926990
H           5.91741229516494    2.22628547247473   -6.61146737211484
H           6.87983883237987    1.59927199925118   -3.76621209119801
H           7.57167350725467    0.95883802805533   -5.25705926440510
H           5.95083562532650    0.47234595949833   -4.74427042329747
H           1.48482667278986    0.24959580990927   -7.11068918995831
H           5.23783840492003    0.50956513471781   -6.96071763532043
H           2.88484558408956   -1.43609784811899   -6.90153438755013
H           6.78086298577634   -0.98591596518945   -7.86171494247804
H           5.64378096082839   -8.37429345854294   -9.16677795210085
H           2.21525878324104   -7.33909578381570   -7.50272807858090
H           3.00156957158915  -10.37953828060113  -12.92190909186500
H          -0.77422270639543  -11.40954926742079   -9.83083250821009
H          -1.71388197155601  -12.91054502092975  -11.48027433420818
H          -1.62429095098222  -13.98564503070095  -13.69393131430787
H           0.23458705429646  -13.50295580781393  -15.23602864879492
H           2.01876115546979  -11.93677952985384  -14.57795635966853
