91
 SCF done       -182.451292044894          0.000806900166
C          -1.84204725759436    4.62562825104207   -5.65243524625671
C          -1.59305039397257    5.96504547281229   -5.52328328096402
C          -1.06953217940882    6.77513916066331   -6.55238722792949
N          -0.64492951958333    7.49430373286910   -7.33952062006061
C          -1.87297462684253    6.70752946280108   -4.35930724366088
N          -2.10187932310374    7.36376052009938   -3.44524735150704
C          -1.73461745618396    3.85869585991362   -6.88450817693446
C          -2.53326227464057    2.68275528327962   -6.76255739702599
C          -2.62993111416592    1.77889794645711   -7.78212121314594
C          -1.90762674118097    2.00742007190328   -8.97508266375625
C          -1.08680780516959    3.16812683394268   -9.08857738477625
C          -1.01563282507008    4.09516374727074   -8.02494637252730
C          -0.35312014958569    3.36977122116427  -10.27543079965267
C          -0.43126589740782    2.47343779193366  -11.30630967082975
C          -1.24504583065941    1.33542141882745  -11.19759847769991
C          -1.96685768857378    1.10713566920606  -10.05744371800132
C          -3.13586385203822    2.63779439899171   -5.42004276668114
O          -3.92655592308328    1.84426140743475   -4.96992223451688
C          -2.48729950316428    3.76540136562484   -4.67593937589188
C          -2.44793876443355    3.75102266781265   -3.32198663472151
C          -1.55361752566024    4.48619564719800   -2.49429891461246
C          -1.80626179205853    4.93534646849474   -1.11999288868031
N          -0.83513798094028    5.62867335434048   -0.59804971707526
C           0.13261535984190    5.69050710220242   -1.54864314618420
C          -0.27899500155572    4.93528453366059   -2.75118541665074
C           0.78287319321408    4.94413346064253   -3.71936872041588
S           0.98883748802246    3.91296923313396   -4.98632035490563
C           1.72567799878333    5.89709249370886   -3.19742183255835
C           1.34549452192496    6.27502130434317   -1.82338400848615
N           2.26330315801117    7.12922866294746   -1.29225701612623
C           3.15164806945300    7.32135430279351   -2.22459971369087
C           2.87421823465441    6.60471970700556   -3.46760200125588
C           3.62830583032418    6.71963118871172   -4.67328056700878
N           4.86339696401250    7.15437093018968   -4.59934051679172
N           5.64113313793168    7.30222027329825   -5.64077334490786
C           5.29900100041097    7.00513547440584   -6.92316089544012
C           3.97121057430305    6.51981104637846   -7.10543852653828
C           3.09982139705370    6.40116211382799   -5.96811602550916
N           1.92742729836150    6.01138727677202   -6.41240417385736
O           2.06021763044958    5.87329813810356   -7.73277628687189
N           3.28830294282998    6.17221585066435   -8.17168038033184
C           6.26904909303516    7.24912949861201   -7.89787303250248
C           6.45388852628615    7.14709780214690   -9.33813101908873
N           7.64608479788498    7.53396216946305   -9.72461102420761
C           8.32512434760847    7.92293974310728   -8.59735386578520
C           7.49373242520540    7.76127259760510   -7.47851041498631
C           8.14648072556132    8.07656281564356   -6.25308517981863
S           7.32859290474493    7.70915199251537   -4.82013082825603
C           9.42116338173777    8.52820517712327   -6.61612774334299
C           9.55347097641787    8.42445285476531   -8.07011975151806
N          10.75494208201730    8.84606391135657   -8.48522501202659
C          11.40042574880439    9.23762632115144   -7.40082182335494
C          10.65657388563502    9.09549953908816   -6.17365440953397
C          11.12602511393042    9.62568918386849   -4.97833409209151
C          10.48132493173639    9.66322735565655   -3.74026200666851
C          10.77938468838573   10.56670553090430   -2.63502910704073
C          11.80806108741239   11.46425761050230   -2.54810474993967
C          12.01424312220312   12.31408851524053   -1.43911642132090
N          12.23455270659469   13.02888994907783   -0.56905003079116
C          12.81160592307644   11.66574005224342   -3.52020500537459
N          13.66235148693294   11.88530180130050   -4.25922746009967
C           9.74741053514811   10.35985458222561   -1.61949213003655
C           8.89702450205127    9.30232798995446   -2.06759774405655
C           9.39429169601067    8.83734539200707   -3.34414819995614
O           9.01048575915424    7.77598167652073   -3.94659865320633
C           7.82268481263274    8.87129285319075   -1.33773977314448
C           7.53780356346552    9.49829266917895   -0.10511280091331
C           8.38554930522253   10.54841075492971    0.35474554529993
C           9.49629185650570   10.96735439916791   -0.42169726583550
C           8.09763679092629   11.15798492689947    1.58969230959115
C           7.02046860018390   10.75582578964294    2.33651988499728
C           6.18423523439316    9.72786556938857    1.88067128499630
C           6.43722519142606    9.11092954416947    0.68406221281648
H          -3.24309391476780    0.89595019416069   -7.67865307481518
H          -0.37474446393089    4.95723172802249   -8.12362556766572
H           0.27034810455594    4.24827154404412  -10.35191016626305
H           0.13351657839985    2.63597940183615  -12.21203309411483
H          -1.29531190169146    0.63892342371980  -12.02112120300819
H          -2.59219829699533    0.23087340560070   -9.96805442088240
H          -3.12544729710105    3.06317993905261   -2.82615639624133
H          -2.70962146486858    4.74755504686810   -0.56699234004640
H           3.99404345687936    7.97214699745713   -2.07357001115966
H           5.72618109331579    6.79897128936454  -10.04632583880020
H          12.39580300256604    9.63895463770898   -7.47780874724589
H          12.07197831211677   10.14478230434065   -5.05746443702610
H           7.19553324098236    8.06813701502393   -1.69734501068744
H          10.11591490575922   11.76312034411541   -0.03997986168799
H           8.74257371347469   11.95105443032098    1.93835844523261
H           6.80967884273845   11.23132076122145    3.28241349355498
H           5.33827268886251    9.42447478269104    2.47832792679961
H           5.79563418941011    8.31684133363971    0.33079085944379
