107
 SCF done       -226.323930363547          0.000582664983
C          -2.39274581429425    1.81549878492044   -0.22121526079096
C          -1.67484480837424    2.12402897417694    0.89994588599861
C          -2.10774969073844    1.83147267352393    2.21180958997433
N          -2.42109030826565    1.62580902573042    3.29562051650163
C          -0.39502054109920    2.71232544340942    0.86779344779136
N           0.65752228288212    3.17101717785287    0.88051886627022
C          -3.62435003067428    1.04668668845931   -0.27619035839752
C          -3.81754583270859    0.58055347950027   -1.61158565651660
C          -4.89470720133641   -0.18705289774608   -1.95277362212993
C          -5.84621316812031   -0.51830374583412   -0.96278341569011
C          -5.66835088413513   -0.03883286949200    0.36876134878323
C          -4.54131731394598    0.74684950748736    0.69685166860044
C          -6.63534224344058   -0.36376120566437    1.34236283926307
C          -7.72422477604425   -1.12687590556341    1.01966640225042
C          -7.89637027145428   -1.60126986303861   -0.28976546926508
C          -6.97711971193377   -1.30467140155504   -1.25933613727238
C          -2.73962432357037    1.08662227031678   -2.47338334086296
O          -2.52690037404429    0.85878086094065   -3.63672057149757
C          -1.97781418159463    2.04383428991109   -1.59895598058849
C          -1.25048858544068    3.02135474251771   -2.16223860380861
C          -0.70367555474782    4.20982430313672   -1.53415994020934
C           0.63058124451498    4.56402304250441   -1.74857877763290
C           1.66266038734659    3.83586752933232   -2.52917347979350
O           1.54099857658109    2.82031407073239   -3.15919634139745
N           2.83250464994180    4.58891309986718   -2.39000421127537
C           2.64387671767325    5.72641332319313   -1.58420876132883
O           3.48851713389260    6.53581726449840   -1.32960418855806
C           1.22026256815820    5.68212464805609   -1.16499955772773
C           0.51379679665147    6.53296880267947   -0.33580535213593
C          -0.82359607205391    6.21271398968415   -0.13703261412555
C          -1.42952592597823    5.09516407070101   -0.71443015420845
C          -2.87047600056888    4.97675065833552   -0.40565589727593
O          -3.65139801855010    4.15893157585857   -0.79764770067215
S          -3.35344203797254    6.30191117025244    0.70099600832689
C          -1.71169524351328    7.03386198804742    0.71373413790137
O          -1.43171112775004    8.01835044743909    1.32139851008760
C           4.07191076590694    4.33173615899346   -2.95694504264179
C           4.38291270474249    3.24626102392773   -3.68070192642328
C           5.67491564952896    3.04406905213757   -4.26045459417787
O           5.93015794000058    1.88909095666032   -4.90662270137213
C           7.19486330375350    1.91478661066778   -5.38286791725864
C           7.77207607299946    3.12944329357843   -5.03775446974301
C           6.80577567795016    3.84734897755148   -4.31917757516001
F           6.93591238993122    5.06740349528725   -3.80235508971236
F           9.00396467847610    3.51905277767223   -5.34492417294506
C           7.77442683624628    0.82489245646528   -6.09053698230183
C           7.11991454825267   -0.31476514473664   -6.38752503995157
C           7.68555957889638   -1.41290427074959   -7.12817551450317
C           6.88104888458584   -2.14299439335030   -8.01866562513301
C           5.43075964524209   -2.01452739545861   -8.28949513797768
O           4.62157366968122   -1.26465116317583   -7.81647815401023
N           5.13829526329289   -2.97889699979997   -9.27361559847182
C           6.27263842316454   -3.69554118562692   -9.66561180815901
O           6.31743016085719   -4.56548279168004  -10.49133884649112
C           7.38333844453540   -3.14777569703609   -8.84360949575520
C           8.71718934628628   -3.50860382133164   -8.83276980359959
C           9.51340245830210   -2.85063818986731   -7.90264578867565
C           9.02913538082778   -1.85194220320474   -7.05680374698838
C          10.00879909368008   -1.43779008526723   -6.02893846785893
O           9.84952867460273   -0.73974392294555   -5.07449441105162
S          11.58844476647048   -2.24912170046268   -6.35016775160573
C          10.94344180950732   -3.18938965591585   -7.72699422795475
O          11.58663489367454   -3.95988583949144   -8.37123749501335
C           3.83463259001168   -3.19823253197980   -9.68335378526443
C           3.47669675393025   -3.94949239848135  -10.73757553185076
C           2.12318668846275   -4.21766590730523  -11.10488547359673
C           1.07367622494879   -4.40675330325047  -10.26128667914656
C          -0.29184379058592   -4.69567668291296  -10.67397553796378
C          -0.85434861104219   -4.35937740171733  -11.87533561177946
C          -2.19389607063744   -4.63397763523058  -12.22222564921581
N          -3.27184582020341   -4.83913051013149  -12.55900431480036
C          -0.18373943530514   -3.66052562048056  -12.90218998304186
N           0.29482335276618   -3.07684466124943  -13.76714438305330
C          -0.97318415451980   -5.32378137738530   -9.55162998645484
C          -0.09185730088356   -5.32463791798026   -8.43275006132460
C           1.18467762447567   -4.68842106769656   -8.80176529786615
O           2.13025392028660   -4.49509924366718   -8.06867161699826
C          -0.45835894540928   -5.85141298349971   -7.22753488418603
C          -1.74576719938934   -6.41556091929523   -7.08568199315525
C          -2.62995893559983   -6.42671884648550   -8.20334948097106
C          -2.22388113067086   -5.87127118141274   -9.43812635058691
C          -3.90910304072032   -6.99984975743334   -8.05133181350530
C          -4.29874953378770   -7.53468763672296   -6.85369033283676
C          -3.42828224597149   -7.52131583302671   -5.75341861906786
C          -2.17950731987383   -6.97305396151900   -5.86668115069493
H          -5.02241304960644   -0.53274198594021   -2.96780528036753
H          -4.43706129058749    1.11046835829078    1.70727947272370
H          -6.49728584123718    0.00131323770629    2.34926813719955
H          -8.45975212740942   -1.36930118087152    1.77169228887753
H          -8.76218662005816   -2.20112308818683   -0.52661996447831
H          -7.10545353146107   -1.66581588910467   -2.26910892277148
H          -1.04394323649113    2.91247174556175   -3.22272435661326
H           0.96224264083000    7.39370869258724    0.13388758617690
H           4.78358098793999    5.11892837365069   -2.74547377632656
H           3.66468317604500    2.46253527623195   -3.86550862885914
H           8.79678667072554    0.99129935250833   -6.39581843501038
H           6.06892149800331   -0.39526777782104   -6.14724728957302
H           9.11996757899672   -4.27011829474456   -9.48081159682774
H           3.11975684313592   -2.65022611164685   -9.08603587942822
H           4.23565762883186   -4.36876931427661  -11.38264239157357
H           1.95699490511655   -4.36362392736996  -12.16607895933299
H           0.22615812813246   -5.83754407463575   -6.39236664615391
H          -2.91101172049671   -5.90084650925730  -10.26906743923359
H          -4.57614491276174   -7.00654568011512   -8.90085590881515
H          -5.28038473074978   -7.97168204616746   -6.74747548016551
H          -3.75174625801383   -7.94874748302914   -4.81604693924226
H          -1.50471173687918   -6.96040065164876   -5.02320749650158
