89
 SCF done       -179.472587820033          0.000563268991
C          -1.83523527333744    2.82027490077175   -5.96522286924323
C          -2.43828757695076    1.59565822450894   -6.00280421773226
C          -2.25755366970345    0.65469108246046   -7.04108672693259
N          -2.17456264503024   -0.14277149603981   -7.86125735329237
C          -3.36757012041589    1.14958406316586   -5.03862876337118
N          -4.13241589410364    0.75213613469746   -4.28082637590193
C          -0.90481712925788    3.35607041908907   -6.95184420222112
C          -0.68930587716048    4.73840660708191   -6.67895484942730
C           0.13409197944524    5.51101883857501   -7.44811624671596
C           0.79913481910435    4.92227058440922   -8.54377732526204
C           0.60834069989353    3.53465938044468   -8.80919036127519
C          -0.25197307147098    2.75877823767226   -7.99885565636811
C           1.28741689879538    2.95667047905309   -9.90227051221749
C           2.10465943583677    3.71177202331162  -10.69837216056716
C           2.28517073121182    5.08002031410237  -10.44105761489804
C           1.64976754144752    5.67021950017538   -9.38301366020998
C          -1.47059653307370    5.12920289817510   -5.50098845377357
O          -1.70885099943593    6.25120126187505   -5.11243043975765
C          -2.00871730137672    3.84498483889556   -4.94099652673359
C          -2.46144851641737    3.71091236671574   -3.67455096902185
C          -2.23821188796726    4.73825624475468   -2.69403543735004
C          -3.14710454458882    5.29595505419032   -1.68489437854951
N          -2.65240885749954    6.30399609863526   -1.02787213959289
C          -1.39233079727505    6.49005960430155   -1.51432564158025
C          -1.08167140063293    5.44405686233708   -2.51063417933159
C           0.22989181723812    5.64386827213007   -3.06838164064196
S           1.09478776461804    4.58928960917968   -3.98637734670522
C           0.61039805973289    6.93161674626487   -2.56809521300723
C          -0.37212470282241    7.40163715153388   -1.56509241587905
N          -0.04522184289041    8.65560401779393   -1.14027364364812
C           0.99037515104059    9.01365278841684   -1.83494455110245
C           1.44558636639017    8.00054453231771   -2.80312213462064
C           2.42150261826228    8.17369352579412   -3.81687781175571
C           3.14176265826331    9.32244805996597   -4.11851559203450
F           3.08276196502702   10.44085634268247   -3.38982426389101
C           3.92936585632399    9.20895157472998   -5.26397689336107
F           4.69101559700776   10.20978418637645   -5.71583337189807
C           3.84808011008548    7.96512670839598   -5.87797111607738
S           2.77963328454296    6.92922205828826   -4.97828483353389
C           4.48178279833467    7.54109798024534   -7.07315018775480
C           5.23744207994229    8.40775837640877   -7.99162415123107
N           5.70595109913460    7.79430162335717   -9.03609348258346
C           5.32712897666981    6.49238560760346   -8.90695742589515
C           4.53446338905422    6.30061398108629   -7.67727600485138
C           4.17459172554359    4.91463970206504   -7.53971787973917
S           3.30716654003276    4.16325934646105   -6.36225216620681
C           4.75757276906428    4.28267681825315   -8.69665255731380
C           5.45784379266222    5.27699059441178   -9.52861321352408
N           5.99552849493802    4.67966881974011  -10.62627971983032
C           5.73059012217246    3.41070513369672  -10.51259317478527
C           4.96310624701546    3.06932901044800   -9.29974663483979
C           4.54476748617983    1.78233935554750   -8.85262904392722
C           5.32640959114541    0.67642902382798   -8.91742770090686
C           5.01189916414856   -0.68394470484225   -8.51154119970486
C           3.76898726400130   -1.16993948407474   -8.20752045348349
C           3.51341498256137   -2.50821317362322   -7.83707020003717
N           3.25304101433352   -3.58311345859472   -7.53195910601263
C           2.58381628901062   -0.40703862298242   -8.24983155379020
N           1.58707961763862    0.16118587157705   -8.28386614544925
C           6.25350431085903   -1.44547791094343   -8.53680775765280
C           7.30705669669984   -0.59712743485856   -8.99034038483460
C           6.77652513760863    0.74444028275886   -9.25762720045587
O           7.39018855135212    1.72483558457699   -9.62313374533843
C           8.59239125085769   -1.04356060231643   -9.11385520163588
C           8.89027364089539   -2.38336695230517   -8.78216500431921
C           7.84462363542839   -3.23724295010188   -8.32308533116621
C           6.52378895374578   -2.74781543168057   -8.20630245948173
C           8.15541334217603   -4.57085389424510   -7.98807338413863
C           9.43612437995855   -5.04007688918532   -8.10060168410708
C          10.46397829994441   -4.19915924676879   -8.55352563257302
C          10.19702769309657   -2.89903509599091   -8.88792795511653
H           0.27921164996393    6.55616331034273   -7.21719745651037
H          -0.35763765053698    1.70868050092036   -8.21859213075333
H           1.14415432714515    1.90380623010274  -10.09377171437601
H           2.61723694655322    3.26250773023503  -11.53655441011386
H           2.93071390665171    5.66078655400471  -11.08366809103429
H           1.78484567515414    6.72289260845779   -9.17814900435101
H          -2.94358412709721    2.80148299496227   -3.33936572011677
H          -4.14706011675840    4.94823829345694   -1.49293726487142
H           1.44569800539720    9.97578011410001   -1.68220322947378
H           5.40656525701214    9.46048640539379   -7.85565385746829
H           5.98881001858846    2.72773700565215  -11.30052956645489
H           3.57503932691074    1.74537818369474   -8.37158547007565
H           9.37155803446503   -0.38054652916544   -9.45959373852147
H           5.75641838483923   -3.41714093700072   -7.85104937660473
H           7.36117051505218   -5.21485652816823   -7.64050028847558
H           9.66434162685742   -6.06267088263426   -7.84071879981265
H          11.46833614987329   -4.58634109237138   -8.63558904131986
H          10.98402801873835   -2.24672531682171   -9.23667520969404
