146
 SCF done       -250.878825307577          0.000864700725
C          -6.06671912086390   12.00932992275916    6.03658475994688
C          -6.22910495364226   13.35582999472234    6.25135400623009
C          -7.41976797245545   13.94159286067374    6.72415705976772
N          -8.36607538060956   14.47659183036057    7.09503392661139
C          -5.21872740483251   14.31952136025389    6.05953994335373
N          -4.43335523160821   15.15022364288259    5.94584058669899
C          -7.04638684339824   10.97047711172211    6.33128201791963
C          -6.44186234305610    9.70294279862873    6.09446429081178
C          -7.11885924030259    8.53444522916413    6.28796507691362
C          -8.45866400870650    8.58103196983837    6.73643045899353
C          -9.07259809594825    9.84511244794352    6.96867658944682
C          -8.34447900585457   11.03986519152809    6.75975770594890
C         -10.41153706211590    9.87902074141061    7.40698667400774
C         -11.11223572870177    8.72085594849434    7.60880966394071
C         -10.50620980264548    7.47667410138182    7.38181484958222
C          -9.20726448480922    7.40845052112570    6.95566504167490
C          -5.05804099538858    9.89490525019016    5.62426089997131
O          -4.28628868807331    9.02628883564410    5.26875969471332
C          -4.86316874385300   11.36388957287292    5.56495004442636
C          -3.82665701115564   11.98368731783675    4.91149101793566
C          -2.59616270592664   11.39984578261710    4.56928680841961
S          -1.78925966304794   11.91368948047100    3.11800643503405
C          -0.54376640115442   10.71994196560079    3.26751081303020
C          -0.66680205420298   10.02886712339310    4.49176762238351
C          -1.83557235492009   10.41705772168901    5.22478124167421
C          -2.08561752303984    9.90664065275607    6.51655819536797
C          -1.21334752855380    8.97838536614879    7.00225946520883
C          -1.20261875363845    8.25887243685001    8.29503341088616
O          -1.98446206791744    8.30975415753150    9.21096746224659
N          -0.06818040636790    7.45895379250533    8.26321002387250
C           0.32570269773770    6.59981324298906    9.35847726754103
C           1.17722255350392    7.35481207218640   10.37324184604437
C           0.67130308731413    7.59571894064596    7.09737255994685
O           1.69464061070435    7.00455261988932    6.85373994028859
C          -0.06796179995405    8.57466567247664    6.27287770104081
C           0.23691954102395    9.10005267615249    5.04988107901161
C           0.33021636795411   10.56654109636769    2.16554212511757
C           1.10327497552276    9.48689490251684    1.88267183990003
C           1.89625159288675    9.31230973772637    0.70012971150253
C           2.07410744874349   10.30528495310642   -0.24216996826616
C           2.76411460020594   10.03539686540786   -1.43806862324527
C           3.00069954928338   10.82299540249300   -2.55812717197675
C           2.65782537545417   12.25046659342929   -2.81586106788113
C           1.18913654816203   12.41870718352280   -3.26732188750801
N           0.27182161796190   11.96175477419390   -2.23971320691389
C           2.93411061569851   13.18409801762763   -1.62458471986184
N           3.13893924485551   14.53511662131201   -2.12224827207696
C           3.64211924934437    9.96971456599617   -3.53277063684863
C           3.99269764314451   10.19567179736427   -4.81215425621447
C           4.52661048211043    9.10844019263008   -5.67588695127053
C           4.82288882432708    7.82484774769920   -4.95345799097118
C           4.47849757318210    7.62169382184971   -3.67042950056667
C           3.84046532689533    8.64532906948071   -2.92674596904916
C           3.30182167421267    8.69515464228152   -1.66079252917953
C           3.16785659561034    7.71589297505536   -0.64597996452240
C           2.49127996393244    8.01911837504134    0.48664145734806
C           5.70686358793684    9.52175862084818   -6.50888202098752
C           6.52840059631110   10.52944932108892   -6.20235038335488
C           7.64575800861478   10.94217569622583   -7.00591816422553
S           9.05090279792042   11.58944678549083   -6.24948019757259
C           9.88439474193674   11.81655370996227   -7.75519042582828
C           9.09320044277615   11.36941275909371   -8.82336326631970
C           7.80091693718968   10.90258030135685   -8.39488477017529
C           6.82802634630881   10.51917510972680   -9.34925294660788
C           7.19749747496252   10.51392802651148  -10.65911298093759
C           6.42782795340402   10.14521355733534  -11.86629338819681
O           5.28088426458860    9.78344806855887  -11.96092365055264
N           7.31363117624806   10.27700406594101  -12.92464625093027
C           6.94199654839379   10.04260296897645  -14.30337709721293
C           6.40801975151663   11.31447918580840  -14.95281897653237
C           8.57941947993051   10.69862476744456  -12.53932484795037
O           9.50576218269486   10.87949805336681  -13.28912349470303
C           8.51232930716387   10.85951966538441  -11.07066635361807
C           9.45794011504489   11.28729737178439  -10.18742056401271
C          11.17704952833459   12.39074131512337   -7.72519834801886
C          11.78222334510988   13.04774261175784   -8.75205627596984
C          13.09432924587780   13.57722034024186   -8.71953194057308
C          14.17091018413774   13.10499000509033   -8.01999051640779
C          15.48328032065897   13.72426228965351   -8.01036695050338
C          15.74910746714652   15.04566912125002   -8.26028010260911
C          17.03922571783025   15.61179272063640   -8.21180418844409
N          18.06707081372885   16.12265790283123   -8.19404537511279
C          14.76575002602222   16.01589382198196   -8.54579584187975
N          14.01265890882445   16.85774523462061   -8.75217354235913
C          16.45094719290336   12.71972469045743   -7.59188741300210
C          15.74303027720382   11.53317037126543   -7.24772419521251
C          14.29571772921103   11.74601772113210   -7.42972278687259
O          13.41756441950826   10.94513108776972   -7.18503216909787
C          16.38700982133010   10.40989978215476   -6.81559357083738
C          17.79594650824862   10.42221309790091   -6.70881569516692
C          18.51172545385088   11.60392499736803   -7.05741327428825
C          17.81678354756247   12.75307483027085   -7.50014197823425
C          19.91734281891040   11.60195519207460   -6.95203310493161
C          20.58577208119396   10.48803471159832   -6.52191974281568
C          19.88009275180229    9.32548103387160   -6.17809254076944
C          18.51488346501524    9.29357974160384   -6.26882646360555
H          -6.63772685565251    7.58529952795779    6.10405741850879
H          -8.83743605144274   11.98251261714803    6.93819111073864
H         -10.87342982799603   10.83969038207396    7.58207540921765
H         -12.13764817393760    8.75767564841704    7.94518202390990
H         -11.07330615613173    6.57244487421939    7.54582960046144
H          -8.73499760768371    6.45300948052388    6.77910758626967
H          -3.98308306844645   12.99262377184929    4.54713191337347
H          -2.91409401968295   10.26074691007292    7.10722971687112
H           0.88940076904837    5.76648123474158    8.93217044584293
H          -0.58794447653012    6.23032981749279    9.83059189286337
H           2.08043035114318    7.73215438854966    9.89911527000803
H           1.45899789906738    6.68994858114077   11.18479317856005
H           0.61613764412970    8.19105753446471   10.78393397205543
H           1.15915068598396    8.83865906909943    4.55899632744393
H           0.28117417816165   11.37551243853485    1.44828388986988
H           1.07653886973485    8.63507371678505    2.54642141445237
H           1.65019634098650   11.28394235641335   -0.09884420640893
H           3.27780725298177   12.60065882079776   -3.64875886221166
H           1.05687383890468   11.89816504908115   -4.23117023955754
H           1.02140536156091   13.48675237651308   -3.42140435819751
H           0.28619029293537   10.94900446191772   -2.17757392331697
H          -0.67484073021579   12.24921835942229   -2.45803795807501
H           3.78823389548090   12.79597270561321   -1.04514929258170
H           2.05449964185141   13.20483473504318   -0.98080427013713
H           4.02573698657510   14.60539504761408   -2.61103961159694
H           3.15550263802335   15.19806096121723   -1.35596723574579
H           3.84463441681875   11.15608366014897   -5.28806365367660
H           3.71732467262564    8.87999746768524   -6.39462697836971
H           5.30767381064905    7.05627028870157   -5.53513602078231
H           4.68184819180286    6.67526469529311   -3.19104185434632
H           3.59382835084202    6.73475309638437   -0.79528372454632
H           2.36892963621273    7.27551693613102    1.26088262689925
H           5.89795123883761    8.90469794530304   -7.37453201903367
H           6.39520090850959   11.06293074872791   -5.26935254901195
H           5.82471821413240   10.26123680105498   -9.05373703055990
H           6.17646716049277    9.26291699579649  -14.30737695618194
H           7.83462315152916    9.69314705091127  -14.82763276814441
H           5.52674953212180   11.66608336160325  -14.42106674136970
H           6.13706071438305   11.11433828635864  -15.98538443981260
H           7.16772946466968   12.09250853481985  -14.93450279709221
H          10.45402148719663   11.52784513487612  -10.51841251957523
H          11.67235847463247   12.36104013181246   -6.76564026655960
H          11.21159136019968   13.27460871629381   -9.64202043009047
H          13.26838783380163   14.41085735642428   -9.39063585996563
H          15.82853279739344    9.52198842071910   -6.55847241816214
H          18.38522527034949   13.63061036198907   -7.76510444449524
H          20.45615692114968   12.49995166625664   -7.21650255868281
H          21.66261041169353   10.49680148391272   -6.44418344486085
H          20.42341472084689    8.45518852759071   -5.84156106736968
H          17.96605786115821    8.40105712050800   -6.00577609945510
