98
 SCF done       -184.252178108691          0.000845135503
C           4.44284274975471   13.02047226742876    0.66903270086122
C           4.33829009188186   14.22177970818098    1.31631668347441
C           5.43149140559184   14.91347779873631    1.88122313264370
N           6.27590367600193   15.52310080083987    2.36296570282677
C           3.13134617953554   14.91738288561350    1.54091316241687
N           2.18690057367147   15.53193164913379    1.76064551415466
C           5.67177287295891   12.26747233701709    0.45496980534911
C           5.34796901581564   11.00336818675638   -0.11800365594835
C           6.30951431377680   10.08547980141743   -0.42843971298566
C           7.66541326432284   10.40097039014997   -0.19017096498557
C           7.99839653232041   11.66557267217665    0.37695869037995
C           6.98130481058361   12.59183724471475    0.69784761826652
C           9.35563809317042   11.97000618434550    0.60987768900908
C          10.33800650811243   11.07033248788472    0.29859147580934
C          10.00925245633418    9.82539939493896   -0.25954847404791
C           8.70225214267944    9.49827276580965   -0.49904759318295
C           3.88901624828866   10.90237856173144   -0.28422704977545
O           3.23833195459043    9.90958988730523   -0.51952238735755
C           3.36105904475954   12.26183282985350    0.05889923909093
C           2.09401530572973   12.67343488218100   -0.18338729965272
C           1.17248647222595   11.98835932026978   -1.03023275713570
C          -0.28550552631278   11.94570962043294   -0.84968100536077
N          -0.92068666222108   11.32375234285393   -1.79744127603208
C           0.03453110560146   10.93567828908306   -2.68941148751898
C           1.37202437995280   11.33582957100021   -2.22229015957879
C           2.36061963654564   10.99971716215903   -3.22076166535138
S           3.97029497532369   11.37772389963828   -3.19157948956130
C           1.61628607361931   10.35524067445444   -4.26040556119976
C           0.18788117716174   10.33420885035171   -3.91156625608309
N          -0.54443727751587    9.74927032734876   -4.90636838469600
C           0.31069868986263    9.42267832809804   -5.82561466528619
C           1.70298334543602    9.76653501972029   -5.51206476623719
C           2.81623734138275    9.51079829453340   -6.33560355378127
N           4.09470656351394    9.80772482432680   -5.92972101109693
C           4.94746512844635    9.44319239382158   -6.91480698934711
C           6.28412556100458    9.38654379176497   -7.26990081046589
C           6.32166885008742    8.82025735211556   -8.55985571163183
N           5.03568200592023    8.53676027565317   -8.97320728324068
C           4.17370153432288    8.89845008902628   -7.98982113341012
C           2.84068809519745    8.93564143352821   -7.62492608140622
C           7.41827203135262    8.54369419376259   -9.40003159288902
C           8.73007400885801    8.68867154330447   -9.06009052827363
C           9.80198138746660    8.41576266951587   -9.93567183567831
C          11.20510794804511    8.39403313382158   -9.50260835823937
N          12.06038618325038    8.11774737233172  -10.43884831209028
C          11.31654826518686    7.94112002128369  -11.56940479107429
C           9.87790016813419    8.10674820060881  -11.28655216649749
C           9.13685716484509    7.97917128235060  -12.50729794011263
S           7.53029805684269    8.24033122893506  -12.79136584820410
C          10.13194053567632    7.69085977873896  -13.51243796567727
C          11.47190050878405    7.69931117519827  -12.90907274670512
N          12.43062851721156    7.53932366927232  -13.86642552074434
C          11.79161215161918    7.47779888386193  -14.99661280675483
C          10.33094019118801    7.56166882927579  -14.86686214332996
C           9.39102140158594    7.62918569471678  -15.93498140287767
C           8.11959842773860    7.16557223369643  -15.84867769089622
C           7.00021885478898    7.45480450862468  -16.72987620320958
C           7.04725717811830    8.13234107632448  -17.91906271760758
C           5.91771004199576    8.40946044028782  -18.71857147675346
N           5.04185302293479    8.66549175332290  -19.41474755580394
C           8.22296980515218    8.62254061676897  -18.52567109002931
N           9.13908498912521    9.04244023531521  -19.07592966816318
C           5.80124885002867    6.91619629498540  -16.09987578002421
C           6.17613292189094    6.18507975700821  -14.93603337288171
C           7.64177237596069    6.21925496895238  -14.78909909752967
O           8.32869808025772    5.51338312561420  -14.08475811665188
C           5.25213745355852    5.56478476762381  -14.14614540401272
C           3.88312315149127    5.66244236994819  -14.47983858628812
C           3.49896781415663    6.39548938371451  -15.64002411583913
C           4.47850975068502    7.01761682694294  -16.44541890063380
C           2.12960268639657    6.48350411058892  -15.96606747597817
C           1.18362296549411    5.87844090024253  -15.18489395430959
C           1.56259871404648    5.15793874839090  -14.04180205300968
C           2.88262610926879    5.05281734427045  -13.69692572454045
H           6.03847354210072    9.13334683611857   -0.86002589111324
H           7.26482970242715   13.54114034245997    1.12411389534959
H           9.60305923167722   12.92909201359138    1.04069820399610
H          11.37429826314170   11.31228578283999    0.48092837040360
H          10.79749946084561    9.12686357992482   -0.49766306533562
H           8.44343884607470    8.54075280355935   -0.92717378169644
H           1.73263045739012   13.60310245159667    0.23922663595244
H          -0.81135630536018   12.36170295287067   -0.00825982786599
H          -0.01730195627854    8.93686901492513   -6.72749594072497
H           4.30856632755400   10.27357871198276   -5.04696119408810
H           7.13097798493526    9.71266014885618   -6.70190393021665
H           4.80615150449074    8.13788926916661   -9.86796252069307
H           1.98654295142761    8.61026613104731   -8.18276178228412
H           7.18229595557341    8.18249227650438  -10.39262715214235
H           8.99574827282622    9.00751948972432   -8.06155514309017
H          11.53517749128082    8.57633419085861   -8.49382143496166
H          12.31936246336475    7.35196427575056  -15.92585043162578
H           9.73065863808779    8.13915427770012  -16.82774791071184
H           5.56292217951948    5.01174274434894  -13.27205150768954
H           4.15627055719282    7.56361776175852  -17.31784451536156
H           1.84363688861080    7.03863550397211  -16.84734275901294
H           0.13781015909164    5.95055733634925  -15.44316128805913
H           0.80285344741660    4.68448726245477  -13.43784213542548
H           3.18002351464339    4.49552310630307  -12.82029617836701
