114
 SCF done       -230.717887317726          0.000501309912
C           4.05002107441501    7.49887796870132   -3.01798733948963
C           3.77872835679423    8.53864373270612   -2.17717746691736
C           2.64298626334619    8.59579667641385   -1.33817348275481
N           1.73780148918424    8.70034673547498   -0.64133995091571
C           4.58155736951143    9.69202089448372   -2.02431474653514
N           5.19517435558583   10.64006793609004   -1.82341308263921
C           3.27109285860916    6.27683893940648   -3.16100506454238
C           3.82723427832578    5.48957542938000   -4.21207563824465
C           3.33002732071751    4.25750384554745   -4.53448218395673
C           2.23834676354436    3.74286145659130   -3.80420516881029
C           1.66617940409425    4.52920570345088   -2.76105188339773
C           2.19850838619099    5.80118402929938   -2.45171051433316
C           0.56935099074240    4.00831141201761   -2.04434919896051
C           0.06593428533982    2.77017422169870   -2.33795826063129
C           0.63575051277017    1.99429362358164   -3.35917204227862
C           1.69882099328580    2.47002270836169   -4.07721524973113
C           4.97440764682864    6.18697939195649   -4.79268517505793
O           5.61477157959510    5.87512308954195   -5.77474420513342
C           5.19435455288205    7.38603327212172   -3.91964033408447
C           6.31968476677539    8.12128559635648   -3.93045903468063
C           7.47764084822639    7.77417770709464   -4.74184393966544
C           8.03433557609624    6.49537314559903   -4.72959619724804
C           7.61387297243968    5.28918586385896   -3.96671809375003
O           6.79752476110999    5.17859005459505   -3.08989306003292
N           8.40371571988079    4.25352494184990   -4.45604540493690
C           9.33369819556021    4.68454789087704   -5.38870773095076
O          10.11053118400499    3.96689429507035   -5.97014102506363
C           9.11164239021196    6.14284721284978   -5.54251149317791
C           9.74406398293642    7.05473383391384   -6.37210911120831
C           9.22733483783295    8.34509531497011   -6.35657144471199
C           8.12091571627819    8.69254971386207   -5.58186225154404
C           7.65116176584367   10.07873132212741   -5.76212775289006
O           6.69010598374111   10.58819984262340   -5.26966571377040
S           8.76251587438640   10.92182903242193   -6.89165369859609
C           9.76883658857138    9.45426297977847   -7.17352189020487
O          10.70616474062213    9.43081974882939   -7.90705897452573
C           8.23954348743060    2.89783204152589   -4.11082653796069
C           7.02717056966966    2.33495564991799   -4.07248747104501
C           6.73348474508135    0.96875485846481   -3.74521352187756
S           5.33478381558471    0.74092930437936   -2.73252698546734
C           5.64735833025320   -0.91701526188998   -2.54839862220575
C           6.75540507107749   -1.32011644031819   -3.25963484899576
C           7.37657873010370   -0.24287720835818   -3.98840557518637
C           8.42190128218645   -0.56358338440147   -4.91203417705220
C           8.94524924769739   -1.85311858066741   -4.88680781550679
C           8.38171915322220   -2.87242852542238   -4.07671121824358
C           7.28473442294647   -2.63178376908654   -3.31597371778886
O          10.02325142171751   -2.21320545757737   -5.60457533451913
C           8.90352367258727    0.37305030378841   -5.90553810857491
C           9.11536893929202    0.07052293053679   -7.19921035638861
C           9.60552913534952    1.08815519033875   -8.10235242565463
C           9.00316237187026    1.37048901972744   -9.33121396007131
C           7.89648257156551    0.65610037335441  -10.00574829101159
O           7.31071948717818   -0.33058109643477   -9.64415089359354
N           7.65100018663103    1.37364521372767  -11.18465191551886
C           8.49595119425263    2.49476385014562  -11.30889134892987
O           8.46063892982248    3.28123509890980  -12.21187178110124
C           9.36280144465301    2.47334873454015  -10.10650297558282
C          10.33887127644992    3.36921196000384   -9.70474277871838
C          11.00469807909557    3.05291189978603   -8.52616521764902
C          10.68453332431690    1.93057952845126   -7.76575001475457
C          11.63579942576474    1.65854569218906   -6.67179647031641
O          11.69184008610499    0.68942217634981   -5.96770879795029
S          12.84171115298757    2.97708722412899   -6.60070370190304
C          12.08530469167362    3.88199984640688   -7.95117110601353
O          12.41666771874796    4.97764851312159   -8.28501828368853
C           6.73409374421263    1.07304217382724  -12.17438476564880
C           5.78826867801270    0.12193635030840  -12.09092093447937
C           4.84585281868133   -0.16454004779716  -13.12345302692161
C           5.02907699455730   -0.07546825315220  -14.46841952525856
C           4.00620589871351   -0.33750787375051  -15.46965795183182
C           2.65258281329214   -0.29030569281534  -15.26778193000658
C           1.69577037328467   -0.52467051784272  -16.27755149807365
N           0.87226520423899   -0.71366237787503  -17.05457473550267
C           2.03240986520777    0.03459019831167  -14.04255020761729
N           1.45821268465168    0.30957382942848  -13.08693031898285
C           4.67349057453750   -0.56268473313112  -16.74349841652239
C           6.07142889934901   -0.36007264588934  -16.56235479506583
C           6.34574635084776    0.00663396392061  -15.16234342947585
O           7.43039967352379    0.25987787186867  -14.68511631270972
C           6.95846968118626   -0.49337373325399  -17.59178490832788
C           6.47825070337461   -0.84180734489309  -18.87380349675727
C           5.08158499444434   -1.05454877235601  -19.06133762676108
C           4.18725178979014   -0.91038609218193  -17.97633190284485
C           4.61462010223966   -1.40599977395702  -20.34433030540486
C           5.48308505700332   -1.53811993782732  -21.39338422028447
C           6.85759226305295   -1.32650336191378  -21.20812316780459
C           7.34453099536047   -0.98555752701150  -19.97542838805111
H           3.76899810216569    3.68011694844870   -5.33533105238486
H           1.75087834515977    6.36494411713849   -1.64861277070962
H           0.13442884369307    4.60747438171290   -1.25817357824184
H          -0.77474440396679    2.38086166205808   -1.78382537183576
H           0.22641856940617    1.01902921158577   -3.57523203722407
H           2.14009927276039    1.87879849328949   -4.86602381009107
H           6.41986055631553    9.00152606623183   -3.30936492220799
H          10.58037551343604    6.78861582918075   -7.00035983126358
H           9.16100322982277    2.37857942003389   -3.89183225969764
H           6.16378291475673    2.97439868523417   -4.20954418880731
H           5.01751736587466   -1.52066846616201   -1.92586479868188
H           8.84026381229876   -3.84684524848437   -4.12573244664057
H           6.81071847061836   -3.41478174830900   -2.74535366452740
H          10.45917494244981   -1.43347039744151   -5.98555003519007
H           9.04916205305146    1.39951095512898   -5.60950070299365
H           8.82525892313595   -0.87904754570774   -7.62605207538022
H          10.58686568636576    4.24879552684457  -10.27673245846064
H           6.82529762238748    1.73285371606807  -13.02575399603888
H           5.67257817266264   -0.43908319069765  -11.17471280304473
H           3.89736080214360   -0.55224769166627  -12.76943013471889
H           8.01374310772530   -0.33075416946387  -17.43000996345483
H           3.13670481002002   -1.08510689590121  -18.14684410431794
H           3.55535704384901   -1.56595455549952  -20.48227465790517
H           5.11549492877739   -1.80617125493075  -22.37250615920793
H           7.52854370203770   -1.43504183508797  -22.04705354824246
H           8.40171909815366   -0.82104696634960  -19.82686470423221
