146
 SCF done       -233.930533199657          0.000721719803
C           5.81735363828132    3.83474677833339   -3.36777280747899
C           5.34922115519738    4.53912691968980   -4.45383119599327
C           4.27956436463522    5.45279751578193   -4.39509069116596
N           3.44987178255635    6.24752586476280   -4.39188870917612
C           5.83835667404088    4.37733513082968   -5.76395703222880
N           6.17368504584066    4.26689322342758   -6.85696346041993
C           5.14209558910323    3.73327365599106   -2.07933394923319
C           5.67003261663134    2.60771849505505   -1.38062006703732
C           5.18438065709345    2.22541353176399   -0.16403370093633
C           4.12538573950556    2.95830259353610    0.41806738117665
C           3.59700722748799    4.08778866539246   -0.27132689715456
C           4.13033558295389    4.47014869680792   -1.52388995033092
C           2.51836437361406    4.78999045698711    0.30356390932143
C           1.98346180033727    4.39669712470938    1.50133747539499
C           2.51525168616308    3.29308655889719    2.18441007521763
C           3.56372268585088    2.58958431677409    1.65580384017087
C           6.73772769655747    1.99339438204318   -2.18663112232813
O           7.38384069604489    0.99969934577635   -1.93971442051018
C           6.90212851711444    2.88474864952146   -3.37246604133927
C           7.98243079671199    2.70365242370555   -4.18233083325958
C           8.58153536886304    3.57388745528107   -5.12714095280796
S           9.47377835890893    2.86350784017468   -6.44989349649192
C           9.89563244633275    4.40739693636500   -7.04645812824977
C           9.42709767936777    5.42379294501804   -6.26458046264981
C           8.67734794592337    4.95569880807898   -5.16240588515932
C           8.13945320868227    5.89498901866570   -4.13989725536572
C           8.94764664441588    7.19026218336505   -4.13911377459219
C           8.92304196386396    7.78926675429077   -5.56423175139612
O           9.50895852238597    9.07486483868017   -5.48150635466186
C           9.24355725455802    9.91283340435456   -6.57812715079611
C           9.69267001791290    6.87368953314363   -6.52654972380946
N           8.47968371617626    8.13628728325650   -3.14876824164667
C           7.15448473341219    8.46431974975406   -2.99579504096880
C           6.72785260666906    9.67241550854309   -2.59230351550719
C           5.36621016809187   10.04971178888539   -2.29709369919536
C           5.06572360535487   11.38111232892214   -2.11207016392534
C           3.75161090531315   11.78956538803293   -1.81895525197647
C           3.20309886476038   13.04719904996682   -1.59646568335806
C           3.95252013170541   14.33954829365677   -1.59723041149923
C           3.42692118215724   15.30805382227517   -2.66965250339332
N           3.28882012596873   14.61272547260299   -3.93515914241062
C           3.94423550501783   15.00307853554437   -0.21028277750165
N           4.62446754164227   14.15269471005035    0.75475872814711
C           1.80529035421646   12.85586218884094   -1.31849519255250
C           0.80090890872900   13.71810729988452   -1.04582372785761
C          -0.53174313905184   13.22558777265151   -0.62800365685030
C          -0.77106223229628   11.77591395298126   -0.82665536165455
C           0.22600478494598   10.92756885803590   -1.15887184632027
C           1.52832387914818   11.41478642582456   -1.37891390094827
C           2.71688525684552   10.78015260074794   -1.70005832260592
C           3.04374051021338    9.42224249052692   -1.89157000465307
C           4.32363094130343    9.07543465768918   -2.18340371585961
C          -1.68982516224431   14.12517772534474   -0.92211911667867
C          -2.82626435427838   13.75330529746032   -1.51354471491975
C          -4.03249870340567   14.54112658469601   -1.45675666975533
S          -5.21465538760287   14.54267196229995   -2.73845627935294
C          -6.30543289329824   15.49137416425479   -1.79726832255668
C          -5.79368646745413   15.78904339893746   -0.57508533122615
C          -4.49255304173489   15.25627128819612   -0.38346502717714
C          -3.91119177971715   15.35944847836504    0.98398512115315
C          -5.02227194072986   14.94242310437304    1.96358021119760
C          -6.19850279989894   15.94108238220075    1.92221973593410
O          -5.92093034441735   16.91520213393987    2.90622110684091
C          -7.01513376291140   17.72625018738826    3.25552662050183
C          -6.41164686260068   16.58643006484764    0.52536623389442
N          -5.52196887989126   13.61524535506081    1.66104603479939
C          -4.85008136454455   12.46040974443875    1.77177417403697
C          -3.56385570286238   12.26861823399540    2.18509101973075
C          -3.01510614309592   10.97535449998098    2.21163436361890
C          -1.67837588300331   10.67734212540995    2.32649814671083
C          -1.09076202505132    9.35599995621770    2.34635287709867
C          -1.74424653283186    8.17606460118182    2.60954081389550
C          -1.11234477579567    6.92187764668809    2.66802549200930
N          -0.66249953566297    5.86650380433708    2.73971165274903
C          -3.11709612797856    8.06407714312167    2.90387968534569
N          -4.22572231741770    7.89983165070174    3.15960966112601
C           0.33758420248772    9.50215761513519    2.09442927544250
C           0.64016677036202   10.89362479459924    2.02947645902933
C          -0.59482583126315   11.66045382226181    2.22646005715146
O          -0.69268066423086   12.88616437044870    2.22198902356238
C           1.89946666124489   11.34374187321247    1.75248239981953
C           2.93216947958869   10.40669691300061    1.52816941532849
C           2.64121196033461    9.01528388909286    1.60115466114766
C           1.32620856818292    8.57846950349279    1.88594955085512
C           3.68319230137277    8.09397293820011    1.37290828224927
C           4.94630160566347    8.52801991762963    1.07653732031831
C           5.22629340918649    9.89965191861820    0.99651920990305
C           4.24161016193560   10.82329707001404    1.22162853388601
H           5.59269850303111    1.36373834733253    0.34303144619721
H           3.71616118023993    5.33666721212367   -2.01557261352888
H           2.11050028891422    5.63509759629412   -0.23303193561601
H           1.14123160338099    4.92070790865535    1.92761161097756
H           2.08220050674481    3.00098283158788    3.12902331241705
H           3.97182301351339    1.73380882086373    2.17392815651495
H           8.49165896536160    1.75408597371132   -4.04043610682628
H          10.46779459533911    4.48786872412738   -7.94968030938861
H           8.14652061350232    5.43902082180147   -3.14669850695883
H           7.10033220792780    6.13285948745355   -4.39076612565149
H           9.99197260537138    6.96920179013610   -3.88588674774249
H           7.87358893305152    7.88607091296425   -5.88862970628731
H           9.66057152683097   10.88575607712521   -6.32448995781968
H           8.16465419317955   10.01144564963959   -6.74679831790729
H           9.71609971445974    9.54813450555207   -7.49615921495426
H          10.76103810428091    7.07592538645967   -6.39566734371912
H           9.43581538093750    7.10844784419602   -7.56204583246765
H           9.09026302427722    8.94340867211514   -3.10452836386395
H           6.45790790118050    7.65544922671411   -3.14961971349190
H           7.46484475519653   10.46090270812317   -2.48872267506929
H           5.85370116320666   12.11748075233260   -2.19659258250993
H           4.99680609644485   14.11427305189625   -1.84473844589594
H           4.10764923747038   16.17936226659144   -2.71796953679112
H           2.43718524977850   15.67897107405216   -2.39307774733153
H           4.16738658397157   14.18365569598883   -4.20425510720834
H           3.00982993832033   15.25371726217805   -4.66887164764515
H           2.91625684151395   15.13059323083956    0.13519533604221
H           4.40077667458931   16.00580886077575   -0.29620681420194
H           5.59615454788383   14.03054125694957    0.48610465749524
H           4.61019117220566   14.58270856313521    1.67378670068300
H           0.93805173958262   14.78977449149805   -1.04052995505108
H          -0.45261894367276   13.34054053769276    0.48808836273239
H          -1.76763340822218   11.41496734246931   -0.62284975313806
H           0.03790070504909    9.86758780162982   -1.25674810005961
H           2.27423475982617    8.66908364315537   -1.80468772054937
H           4.57019185107155    8.03440458905233   -2.32122276856144
H          -1.59297540661065   15.13323560179066   -0.54104398807890
H          -2.90452939802402   12.79571400133818   -2.00909129948858
H          -7.25063287288061   15.77415600482254   -2.21619452935008
H          -3.61637871153899   16.38430934572009    1.21728277504436
H          -3.04543175892542   14.71063497810665    1.09184275530361
H          -4.62642839482686   14.94654569274204    2.98558055038376
H          -7.11761316812856   15.40093107634902    2.21177408926321
H          -6.67867504626856   18.34887133821735    4.08144825608907
H          -7.86791331978845   17.11865615489378    3.58128306825277
H          -7.33344747070475   18.36823222581812    2.42748296785050
H          -5.91954406409959   17.56455354223319    0.55125215865511
H          -7.47373105094922   16.74788781457294    0.33492600654344
H          -6.41476085600505   13.58111334576995    1.19501107987311
H          -5.42702181759305   11.58914046638022    1.48250563823731
H          -2.92937823949627   13.09384542463543    2.45853165299024
H          -3.70614925251777   10.15387640261781    2.06578019169624
H           2.11721366508585   12.39941178270169    1.69255466927478
H           1.13207757552203    7.51773262698850    1.91755719554959
H           3.46668917414890    7.03699925187453    1.43703512142559
H           5.73634206723271    7.81371178321710    0.89596527376677
H           6.22801025684122   10.21937179545077    0.75172700601417
H           4.43727435155120   11.88394004126883    1.14885831187191
