112
 SCF done       -224.997321638140          0.000609109201
C           1.37909588596513    2.08406931555644    1.19956576853628
C           0.81409472416831    1.08610464712322    0.45512902797605
C           1.52764628764958   -0.03409156431701   -0.02142816146363
N           2.07401792898661   -0.94226415935337   -0.46087987265665
C          -0.54823150235965    1.04547382893059    0.09749910642950
N          -1.65324206739851    0.95585929582815   -0.20107980904852
C           2.71784785556679    2.07965149200244    1.76937610819879
C           2.78975991927558    3.07594587388488    2.78822006642684
C           3.92551056578845    3.27394815485536    3.52047333825877
C           5.06245360873894    2.47780175928900    3.25831465123932
C           5.00496021560364    1.49577055895079    2.22608024489192
C           3.81541250112292    1.30953297666065    1.48653200853485
C           6.15114600114505    0.71563493655744    1.96749514741760
C           7.29631146885662    0.89057827094926    2.69561236923475
C           7.35009115625839    1.85442336698822    3.71412990842948
C           6.25737795393484    2.63117120758569    3.98909117776680
C           1.51285290522197    3.80214017913814    2.85969690229085
O           1.18588210578891    4.68202252625217    3.61521265793956
C           0.70453363952097    3.26776293333793    1.71249294610116
C          -0.32775398792058    3.98901357601247    1.24308168273500
C          -1.03209651933940    3.84341237636791   -0.01512252047726
C          -0.39501151846079    3.69844667700047   -1.25235430331064
C           1.05089278009389    3.62197292423998   -1.58348536811010
O           2.00141205288268    3.68732429202669   -0.83924148320601
N           1.11788718373476    3.45427706725392   -2.96254807658984
C          -0.15301092853244    3.45765685061970   -3.56138655412879
O          -0.35535322063490    3.35510295946967   -4.73878268374074
C          -1.11697975107905    3.61024590940500   -2.44635574366175
C          -2.49633261372330    3.65160328495847   -2.49190395893494
C          -3.14004366206048    3.79193162390741   -1.26671972898572
C          -2.43698039125465    3.89087472404261   -0.07129054787427
C          -3.28917027944448    3.97103613109821    1.13118514650298
O          -2.93941844458265    4.01673141740893    2.27181078530846
S          -5.01105982426368    3.97430360703195    0.62456873202456
C          -4.61155395354297    3.83839754163089   -1.12193521666985
O          -5.42878783174043    3.80001830371497   -1.98814931087081
C           2.25926939796739    3.30649223685003   -3.74392436919032
C           3.50741920113953    3.14624604085968   -3.27938459842337
C           4.65422273880885    3.00816693943083   -4.11803851052970
N           5.89402944156561    2.77396030045944   -3.56463069935067
C           6.80995861630079    2.70344851688366   -4.56757190316185
C           8.15555330572366    2.52707116433909   -4.85424088352632
C           8.27233765684758    2.62479820297307   -6.25154941093869
N           7.02440074346858    2.85275503613446   -6.79839660179633
C           6.11868287406614    2.90604604234189   -5.79341205462463
C           4.76810070615944    3.09210762948943   -5.50770404786027
C           9.46787411792455    2.53891837635121   -6.99788595956497
C           9.53924947388179    2.69941115385092   -8.34644345582592
C          10.71384286655160    2.72675760472598   -9.15134888796690
C          11.95462200831068    2.11417272439389   -8.84570358396783
C          12.32235201928844    1.15353052791862   -7.77572284921991
O          11.65575879795165    0.67752667974358   -6.89683402903321
N          13.67974692528368    0.83881736749860   -7.98900892806677
C          14.20411991726649    1.50561728315854   -9.10553122905202
O          15.33753439865366    1.42056454188787   -9.48933379555153
C          13.07333994290341    2.27593587611001   -9.66497497038939
C          13.06205668714640    3.01195504138209  -10.83532075028968
C          11.83747552285508    3.56146905621384  -11.18726544096308
C          10.69843554986746    3.42495669320756  -10.39672701698436
C           9.51752454227268    4.08866872276009  -10.97004244298133
O           8.40006153115069    4.15967501304956  -10.54148939267668
S           9.95596261454676    4.86048906980241  -12.54015951979514
C          11.66042918164086    4.33465319456140  -12.43476509905592
O          12.48928123339558    4.58514079249171  -13.25563484263180
C          14.47024878141814   -0.01876415396403   -7.25226684320668
C          14.07401801708544   -0.83528608094674   -6.25741325204016
C          15.03251308536819   -1.67278952269180   -5.62180119860069
C          14.75433541230239   -2.61434786100596   -4.68030483305514
C          15.71040903309488   -3.50658376281413   -4.04314735743181
C          17.07511172421225   -3.39385621242530   -4.06143367647241
C          17.95003573732810   -4.28242497827911   -3.40080389153444
N          18.71465607501556   -4.96757575063149   -2.88729616123704
C          17.80157197147456   -2.36556742261001   -4.69872870975832
N          18.46274384553493   -1.55578762665571   -5.17385278282656
C          14.95395558283147   -4.52121264824384   -3.31983222146578
C          13.56798097161504   -4.20515526895558   -3.40610137866587
C          13.38955488058178   -2.98398339278725   -4.21262541354176
O          12.34521180069113   -2.41604564181490   -4.44623668833412
C          12.61352768594821   -4.98338873309552   -2.81689362737934
C          13.00751039811110   -6.14085728645948   -2.10908744379587
C          14.39170243755035   -6.46883612431049   -2.02585754514012
C          15.35801121759885   -5.64026270722031   -2.63991683958372
C          14.77356676522883   -7.63133307021382   -1.32521213473904
C          13.83492857994849   -8.43256180471731   -0.73459594699083
C          12.47227613059973   -8.10831201356361   -0.81633755976169
C          12.06754532140049   -6.98677374032228   -1.48800613024351
H           3.95584102642117    4.02967709930675    4.29115871439340
H           3.80182485970211    0.56557720340672    0.70521214444245
H           6.10370289200216   -0.02954067103743    1.18679525375618
H           8.16718252039391    0.28578517019524    2.49218321465168
H           8.26145421393446    1.97779613488152    4.27948805410872
H           6.29290561766733    3.37444950911499    4.77180662217911
H          -0.65510916084353    4.80791317823821    1.87722114876946
H          -3.04726455451063    3.57071241809075   -3.41507175326795
H           2.02862718492384    3.31372265521971   -4.79936934975322
H           3.68622470676306    3.12419549237952   -2.21426520283344
H           6.06794488185874    2.66953291477657   -2.57969283303011
H           8.96738311145313    2.34367766066186   -4.17982668877155
H           6.83913221837157    2.98158095446811   -7.77826411347212
H           3.96850071260129    3.27294720340746   -6.19578987034148
H          10.35696917109518    2.37125418633782   -6.41227496537667
H           8.62975365025639    2.92866271032561   -8.87938450498226
H          13.93792992093795    3.13274686416190  -11.45123734766110
H          15.50461427809149    0.00963091901216   -7.57976248009043
H          13.04554328623139   -0.88337138769626   -5.93488989494984
H          16.05713072823220   -1.55593863233475   -5.95322528437337
H          11.56865338769151   -4.72173989439869   -2.89568567693986
H          16.39709350669389   -5.91867084965106   -2.56385172621236
H          15.82391363142542   -7.87595141293085   -1.26466593628056
H          14.13711158839678   -9.32139736287246   -0.20132888245294
H          11.74498248599798   -8.75246256127646   -0.34512443374391
H          11.01964642649291   -6.73295039201605   -1.55495173397945
