134
 SCF done       -252.439193567208          0.000569158761
C           1.51655443233228   -5.84227182680495   -6.46559862123275
C           0.54810948710927   -5.53382748623580   -5.55177247455376
C          -0.14164723503652   -6.49782541796877   -4.78503698982556
N          -0.74020149522435   -7.24189210561387   -4.14940172795055
C           0.17597397324795   -4.21616659816357   -5.21898452757492
N          -0.13273365318821   -3.16011860732441   -4.89015493806015
C           2.09409184394195   -7.15494400645859   -6.70154422335611
C           3.33181779253561   -6.99578335751461   -7.39400400733735
C           4.10781337932897   -8.06878149845017   -7.72851023410422
C           3.67108129959579   -9.36841155379940   -7.38838660219653
C           2.42582550653061   -9.53455637210757   -6.71378212940601
C           1.64477141833108   -8.40734708823989   -6.37500231942199
C           1.99616602414316  -10.83873232721308   -6.39275019246223
C           2.75911807241020  -11.92693712082093   -6.71766481499227
C           3.98602047056716  -11.76221754867314   -7.37846250571256
C           4.43231427403260  -10.51068571114437   -7.70614430532451
C           3.55888060244188   -5.57095674709851   -7.67978070846654
O           4.51382115042901   -5.04529533457223   -8.19429722728952
C           2.28703851291099   -4.89387166673198   -7.25841806806600
C           1.95899828003001   -3.70320534380057   -7.78593438533164
C           0.67117051994854   -3.03494968857148   -7.75555853441745
C           0.59146385555657   -1.69206859197014   -7.38783244801668
C           1.68269110271370   -0.79255567451408   -6.94749028661309
O           2.86086767206236   -1.03159393095760   -6.87371179704113
N           1.06301018470365    0.41899546991074   -6.63630142873893
C          -0.32631769747736    0.37431364411315   -6.83718514309389
O          -1.07307230800062    1.29794362271818   -6.65564695535768
C          -0.61714005008894   -0.99742058781796   -7.30842789768967
C          -1.82305964947230   -1.59734625416010   -7.61579677612563
C          -1.75895349892769   -2.92517605674850   -8.02072021896674
C          -0.55584089708239   -3.63782281545305   -8.09676758309401
C          -0.71321997518351   -5.01615140535583   -8.58607292060555
O           0.13319416924295   -5.84033240027705   -8.79505525508715
S          -2.45496847883347   -5.35350942988714   -8.85954755508473
C          -2.96018100808381   -3.69175763023706   -8.39287783634538
O          -4.09374920921128   -3.31995377462124   -8.40319131821592
C           1.66091814454992    1.58333332143494   -6.16431040889474
C           2.96727976113330    1.74036217776697   -5.92167649732266
C           3.59069902555862    2.94305725488636   -5.41564835271454
C           4.94676819690379    2.91669664993985   -5.15481975835223
C           5.59323977218520    4.05124029277881   -4.63620685419086
C           6.92472593524401    4.26728643908037   -4.27846705217402
C           8.04014571516396    3.29946203096089   -4.43424323979669
C           8.87917136947764    3.62257304116855   -5.69819644199284
N           9.38820532980603    4.97976885476142   -5.65181290899793
C           8.95225589900255    3.20957382535655   -3.19419387891011
N           9.40464605927199    1.83745310286939   -3.04527023494183
C           7.00700011171970    5.61945018200613   -3.77814899175640
C           8.04498240413282    6.33296450444539   -3.29707733237903
C           7.86171711858408    7.71688926840578   -2.79136028520124
C           6.49143140372516    8.28880773191796   -2.98906489618184
C           5.46993057189362    7.56310546056022   -3.48447633450523
C           5.67064218295132    6.21806341939057   -3.86569166827520
C           4.81895828160419    5.25251701035470   -4.38555030421449
C           3.43991698378822    5.26293362463216   -4.67549245023856
C           2.85055358885427    4.14106728837377   -5.17306952423006
C           8.87971345314104    8.69858540796655   -3.30418444682960
C           9.74739099446101    8.46285337365509   -4.28234263784772
C          10.70144407546475    9.46724812494688   -4.72931820811239
C          10.34548196488385   10.79516532685711   -4.98237331632424
C           9.00902410829099   11.43043174513554   -5.00783233684991
O           7.92351743727988   10.94439648112691   -4.80999993121672
N           9.23650047651920   12.77170797420241   -5.34366092416547
C          10.60120983636259   13.04974900608713   -5.54760178564794
O          11.04411552122586   14.12766859289139   -5.83616156291329
C          11.29409833900099   11.76142220408347   -5.35208782967498
C          12.63371223435192   11.45999995255126   -5.50859598498065
C          12.99378745396416   10.13407320224495   -5.30052043027276
C          12.06029719837894    9.15999504245578   -4.92316561008001
C          12.63368029475443    7.82358222171153   -4.72682495562703
O          12.08143341457216    6.81534479669257   -4.38652916601459
S          14.39647427569513    7.88427353306117   -5.08598542180033
C          14.37233529163674    9.64533032405797   -5.45185334612356
O          15.34453555513140   10.26702983585593   -5.76052651893995
C           8.28793728921421   13.77421898011255   -5.39976843661397
C           6.96566167190892   13.57554304935790   -5.53522977730811
C           6.00291796785767   14.62820587667889   -5.52729450320859
C           6.04639790614955   15.75042698115186   -4.75980795549284
C           5.05286240092885   16.81216461787089   -4.76377809926179
C           4.22961575454820   17.13318027687278   -5.80909461498770
C           3.30003085589227   18.19351444135825   -5.78273914939819
N           2.52392096078751   19.03880156010209   -5.81064309700040
C           4.23377621058028   16.47063005850449   -7.05529149166410
N           4.19889981490666   15.98567610252973   -8.09519197398207
C           5.15266434699152   17.51987180906187   -3.49584688794261
C           6.25170108471531   16.98296796579788   -2.76582885928463
C           6.90297082557109   15.92112711810199   -3.55307410526766
O           7.89085792096009   15.29352441252505   -3.23682022846526
C           6.58678151560773   17.44562496408361   -1.52569397262845
C           5.82146067021362   18.48285765868598   -0.94745836121554
C           4.71797033222457   19.02221654898126   -1.67022880984938
C           4.39644016207926   18.52525156608716   -2.95396779619984
C           3.95829906249648   20.05265332498908   -1.07992369501796
C           4.27157786819944   20.52876578967907    0.16406811185705
C           5.35822549287735   19.99730951141916    0.87467015235910
C           6.11737178175631   18.99722233121676    0.33027710590645
H           5.04284818091610   -7.92824800775843   -8.25021392738806
H           0.69920690406716   -8.56023569793895   -5.87856003720264
H           1.05220038226985  -10.96011455127145   -5.88229678480506
H           2.42157094918904  -12.92150095751920   -6.46760336282599
H           4.57487509364484  -12.63223907808200   -7.62758343184284
H           5.37542303252928  -10.37839528938546   -8.21578724991042
H           2.75360493782931   -3.17206131229992   -8.30071935874390
H          -2.76536684892240   -1.07799780327906   -7.54659075495750
H           0.92414951962650    2.35944671420014   -6.00824048354866
H           3.63566626552063    0.91022288458534   -6.09623072493499
H           5.50938787495887    2.01287001709297   -5.33762651522281
H           7.61407094395839    2.30189931172093   -4.57795167999083
H           8.25482694252355    3.42682855189055   -6.58299704631333
H           9.72636652175372    2.93406660233528   -5.72563393429238
H           8.69330789364908    5.63483147926484   -5.99053268252580
H          10.22928331440816    5.08056625747463   -6.20517621521228
H           8.37630801785284    3.46174270247435   -2.30005447293318
H           9.77513023107262    3.93077157308251   -3.30063293630682
H          10.03242815899062    1.58314625291843   -3.80015051581367
H           9.90259315171660    1.71397130145161   -2.17175333741507
H           9.04116482971408    5.92439399445220   -3.24554826476442
H           8.02466095071699    7.65961583241399   -1.69877031987415
H           6.36276245550802    9.32420523751085   -2.71690968024849
H           4.49083588315827    8.00320348975728   -3.60352424980395
H           2.86205392231681    6.15749065835854   -4.49659100979496
H           1.79496822042544    4.15255709264408   -5.39121814303537
H           8.85418106451346    9.66347993766714   -2.81740598272465
H           9.82791155894662    7.48604398152179   -4.73712889218343
H          13.36284698092722   12.20321458448947   -5.78878720416172
H           8.72985223335924   14.76095521633464   -5.39232724251597
H           6.58434995438372   12.57613526976471   -5.68835048299136
H           5.12313284421627   14.45686579357920   -6.13692027125316
H           7.42547754469651   17.02429388370624   -0.99145476512997
H           3.55058389247837   18.94604559693319   -3.47448360288267
H           3.12362723967557   20.45955193293165   -1.63161071241174
H           3.68340341016908   21.31797507910238    0.60769834701172
H           5.59053779417033   20.38402491238828    1.85563047075837
H           6.95547720785804   18.58443220586038    0.87260068839252
