93
 SCF done       -191.374517916029          0.000412721980
C          -0.79430526998812    2.29096239727620   -0.66471683683295
C          -1.08243507944716    1.65825679910468    0.51310593159179
C          -0.68142780240392    0.33923452657727    0.81459193481898
N          -0.38283800751160   -0.72786418682576    1.11255384418983
C          -1.85296691623411    2.23310272205718    1.54553045080946
N          -2.47639428377060    2.66177366079974    2.40872839723279
C          -0.03447269235570    1.75037549695727   -1.78263752135737
C          -0.17588893018545    2.62082146267716   -2.90588829732653
C           0.48089819713659    2.39505021990643   -4.08332113445588
C           1.35784076829531    1.29313002842290   -4.17590270096159
C           1.49812583270608    0.41170773984020   -3.06231814408615
C           0.77753356763558    0.64938935525909   -1.86999478597144
C           2.39147523157999   -0.67419759221173   -3.16680771149499
C           3.12807489111873   -0.86725230570558   -4.30410465016257
C           2.99933354709418    0.00907471843457   -5.39270307700387
C           2.12668404076286    1.06175766479940   -5.33371765249486
C          -1.03443515675249    3.75214538135491   -2.53401936684541
O          -1.59247605870555    4.55366747878983   -3.24356910593541
C          -1.17685656670177    3.64486122061977   -1.03981022106778
C          -1.50707189199460    4.68227768450580   -0.23590178866832
C          -1.48994097065843    6.03967568524496   -0.68191485165582
C          -2.32873390734432    7.14948580056875   -0.20583894888753
N          -2.04745464516829    8.30188109030339   -0.73847904795136
C          -1.00312182795752    8.07525351680127   -1.58636766518265
C          -0.63775534157513    6.64119530900136   -1.57388238279179
C           0.53554130609816    6.42518267489045   -2.37390854072559
S           1.53292115002134    5.11670073616175   -2.37396265956858
C           0.78856253981578    7.70767785103917   -2.97754300433845
C          -0.13446628768678    8.72114029739804   -2.42538439278603
N           0.19676823437508    9.96055641699141   -2.88815048100045
C           1.23989888488355    9.79264108830464   -3.64580095282063
C           1.67261983799247    8.39758166127531   -3.76651487058309
C           2.73260075674821    7.86668740147343   -4.56090252097107
S           4.28218332616501    8.62809837990849   -4.70031759936936
C           4.90933676999817    7.31495530483159   -5.65535109742791
C           3.93628759117655    6.37309005995142   -5.89595742109883
C           2.70013929702300    6.67793525989338   -5.27019299451167
C           1.55058240809853    5.88568646497108   -5.45241872384563
N           0.63365820543988    5.23258689347185   -5.66383479337847
C           4.00903128315484    5.21785238677267   -6.84670596511283
F           5.20825404569803    5.04394579334871   -7.41598481141103
F           3.67057191681920    4.05227281057342   -6.28415280733676
F           3.14868493283822    5.40384908496689   -7.86910646007004
C           6.29627748939954    7.29151230249709   -6.01956875669672
C           7.06590091769862    8.38427290539586   -6.61550905921233
N           8.30357101286005    8.07952235952989   -6.87747870776758
C           8.46632366876971    6.79346571739570   -6.46334080360979
C           7.20557236620702    6.27520520003218   -5.89143454021792
C           7.39488839716714    4.93823905887368   -5.38001893631416
S           6.35869648200895    4.01769951355960   -4.50126692579676
C           8.74840859721462    4.62343003071283   -5.75566001502506
C           9.39581913101810    5.78897595504756   -6.39751050183255
N          10.67120729057124    5.48092963456832   -6.75303275319157
C          10.86720539557359    4.25189631786636   -6.37548698549306
C           9.69584005836175    3.63657850308589   -5.71532493576515
C           9.58062765635188    2.32887905835056   -5.15874400505859
C          10.56356951102600    1.73537906934829   -4.43918936255461
C          10.59099043839247    0.40758380353798   -3.84639753387467
C           9.64798440364395   -0.57100265190732   -4.00334681316468
C           9.73195503651418   -1.85061787857480   -3.41194178972390
N           9.74608788810505   -2.90600883712299   -2.96231525158973
C           8.47076577843934   -0.44766433508704   -4.77348717682190
N           7.49855633645213   -0.42376126019169   -5.38289491807873
C          11.81990648162351    0.30426195268746   -3.06979541323365
C          12.53447813379602    1.53591594107562   -3.16493352213980
C          11.78543626612066    2.47166604131581   -4.00892825544341
O          12.06353514272700    3.62326989564080   -4.27327508871265
C          13.72920869999581    1.73017233554479   -2.53051588909308
C          14.27794341509490    0.68143198739797   -1.76086593209015
C          13.57121173907830   -0.55301429177713   -1.65983653922554
C          12.33539196487060   -0.72376786541479   -2.32425849557422
C          14.12811192452357   -1.59250698706674   -0.88745080813762
C          15.32503431219862   -1.42292801013826   -0.24570244254530
C          16.01961423807869   -0.20789273847754   -0.34607434072703
C          15.50761297236130    0.82226325852333   -1.08775059233873
H           0.36667319760011    3.07797490950687   -4.91231462384803
H           0.91118083676058   -0.02661979806272   -1.03934565774490
H           2.49090960528323   -1.34448957790107   -2.32532314682201
H           3.82090105963315   -1.69273678978613   -4.36952017972439
H           3.59931566593107   -0.15327190523784   -6.27493672630098
H           2.02433397716554    1.74449392720336   -6.16325896497495
H          -1.72635297904939    4.52399311202941    0.81294000385771
H          -3.13442989261520    7.05112270013468    0.50119325987653
H           1.70316686642565   10.62604438137076   -4.14479904571453
H           6.67285974670212    9.35896616706745   -6.84625287209587
H          11.77962662424089    3.74500743373952   -6.62969715570837
H           8.61876646412825    1.84598791542488   -5.28181357735790
H          14.24906014721650    2.67267953982316   -2.61803460894125
H          11.82452098486216   -1.66830575911099   -2.22490568483188
H          13.59034614704420   -2.52607410585678   -0.81277736434795
H          15.74337064138500   -2.22495528526531    0.34337489573014
H          16.96215516427892   -0.09207355680234    0.16726709395543
H          16.03744567079127    1.75990426445412   -1.16855312518542
