93
 SCF done       -181.172291560216          0.000790099154
C          -2.46903801883790    4.06468147076531   -6.02335869226310
C          -2.51358050952954    5.42852508963874   -6.16850454660638
C          -1.80761069117965    6.11931683339807   -7.16634980447831
N          -1.21079358265625    6.71957680013044   -7.94389924466253
C          -3.25840510858967    6.28467423422865   -5.33498922761181
N          -3.87219845600618    7.01758518893155   -4.69896830489960
C          -1.88682171756985    3.12518021121968   -6.97371448981384
C          -2.47065657174462    1.84112350262438   -6.76135998543674
C          -2.12261097360002    0.76206494945703   -7.52272323563164
C          -1.14860623689284    0.91821527134827   -8.53424227353585
C          -0.54613492479012    2.19443970249049   -8.73570671640325
C          -0.93452730334101    3.29679586143346   -7.94136281288501
C           0.43757695336957    2.33065665367316   -9.73629748871334
C           0.80716766685873    1.26071271787957  -10.50495029510087
C           0.21065381001918    0.00593881860234  -10.30909841675883
C          -0.74651684403472   -0.16147908436285   -9.34548178834715
C          -3.41111323190006    1.91225434844869   -5.63078054760631
O          -4.14567125742580    1.05492618261854   -5.20259487853718
C          -3.21624187759137    3.28239807015904   -5.05920753434225
C          -3.59460820562025    3.54061409758147   -3.78331721751713
C          -3.14987829915841    4.59773962088895   -2.94518720164887
C          -3.89755838384976    5.13366352526382   -1.79707674822274
N          -3.28965308168879    6.08583582903977   -1.15844656631514
C          -2.09814068699005    6.25843140953553   -1.79610786226840
C          -1.97615465181384    5.31598002336302   -2.93145272884383
C          -0.67072738299904    5.43932744438239   -3.52585166739146
S           0.04707824640398    4.38864308523482   -4.57043425980873
C          -0.07475444089324    6.56513930326928   -2.85671671487124
C          -0.95821820440385    7.00976998317104   -1.75426330840339
N          -0.37339000772925    8.02454616116250   -1.05522214109086
C           0.77424859527415    8.22830240540031   -1.62778518312414
C           1.03855887807996    7.36246022596790   -2.78669637631970
C           2.19351477514849    7.44551593749723   -3.63338437803434
C           3.44494416709074    7.79614631508117   -3.14275691173058
C           4.57314800415693    7.84798375645043   -3.95160147680908
C           4.54280487501388    7.58425810747683   -5.31893014548899
C           3.26918402661815    7.26517153963059   -5.86911925715392
C           2.10602184301475    7.19079947006900   -5.02456701502450
N           0.99945759300396    6.92051892151963   -5.71644489707096
S           1.37510482846170    6.75908074486716   -7.26442439530336
N           2.95629909402401    7.02044400265911   -7.14054554724514
C           5.72580314000526    7.64983247181208   -6.12462311432530
C           5.73119735018886    7.53524232867185   -7.59180717454532
N           6.90416695142049    7.63724789811748   -8.13859210834962
C           7.77451379145622    7.81760355751156   -7.10868982123389
C           7.05750218346250    7.83755923382676   -5.80692552524196
C           8.01864178686658    8.02335438622375   -4.74782788351558
S           7.84073567149064    8.11782987253040   -3.11294016539478
C           9.28967561973085    8.10310079228191   -5.42365428983753
C           9.11088318536394    7.98764661498705   -6.87978760585349
N          10.31438913423809    8.08168918294292   -7.51268104309631
C          11.19608139444622    8.27513644471507   -6.57923837659821
C          10.62732850190423    8.30331372292112   -5.21678122959300
C          11.31495557123376    8.50969383198426   -3.98304762103045
C          12.23746056905908    9.48420818616369   -3.80111843508852
C          13.00372247404971    9.79834221290196   -2.60632120919940
C          13.16387531201442    8.98792094610168   -1.51620860471857
C          13.93924098513736    9.32676146582458   -0.38653273482487
N          14.55599652247226    9.55062649390981    0.55484465447256
C          12.60523983189989    7.69674861856248   -1.39706354590421
N          12.19516164984583    6.63475299290485   -1.25341320505390
C          13.61573869428238   11.10401104929648   -2.81302749263530
C          13.30194333924265   11.55889185503310   -4.12827643332987
C          12.45736484524508   10.56534452275653   -4.80319518667634
O          11.98435313924571   10.62588025728493   -5.91821367551952
C          13.74535178821656   12.76151708171410   -4.60084192592009
C          14.53336462834881   13.58167306568442   -3.76382487585103
C          14.84566449958396   13.13789539980335   -2.44539783744489
C          14.37596471004285   11.88703560332081   -1.98443687326449
C          15.62516582193758   13.96972679609000   -1.61607700505079
C          16.07564333173824   15.18128643759595   -2.06550789976847
C          15.76900221934881   15.61633898402244   -3.36375137427746
C          15.01499704131856   14.83339927628325   -4.19536538913856
H          -2.57891116818970   -0.20154281407667   -7.35126743855600
H          -0.45421201920850    4.24935907757753   -8.10209108710715
H           0.89253611647886    3.29900946676793   -9.88510450970514
H           1.56184733974175    1.37518072012380  -11.26850996214184
H           0.51455528187665   -0.82745479580422  -10.92449566836877
H          -1.20788723370840   -1.12554232098736   -9.18928876070411
H          -4.26236549962571    2.81433556647390   -3.32971597421426
H          -4.87566229583341    4.80180100670922   -1.49534210534599
H           1.43409414512587    9.00012636467246   -1.27105643238425
H           3.55658361314718    7.99760292492140   -2.08802996964035
H           5.51616835839463    8.10441195348536   -3.49548677517438
H           4.84689036874575    7.38724551616428   -8.18481796290206
H          12.24258274982335    8.33556595913230   -6.81440991838719
H          11.00182330193361    7.88576646482381   -3.15417234348023
H          13.49485320598882   13.08310292604424   -5.60095220156727
H          14.62366840923133   11.58101860958558   -0.98024310946971
H          15.85942543753294   13.63032123837412   -0.61789312533004
H          16.67103323658588   15.81165107189670   -1.42242840589993
H          16.13249381892582   16.57522002062754   -3.70132812026939
H          14.77508444246784   15.16318072725721   -5.19549883827689
