152
 SCF done       -243.616409802985          0.000839778726
C          -1.90136492723446    4.79488979035779   -9.36585925583364
C          -1.50802346704470    6.08101040904153   -9.10456929977015
C          -0.70766251919639    6.84878227913545   -9.97356159200227
N          -0.03859020800881    7.50832459380578  -10.63442055934010
C          -1.93201717741171    6.83061510296487   -7.98832667416143
N          -2.29520293511687    7.53231603500101   -7.15531653579832
C          -1.72280178807256    4.09638162372584  -10.63519041347563
C          -2.60540775355747    2.97731840641946  -10.66591190780438
C          -2.68849235314873    2.15787255748183  -11.75380076994773
C          -1.87220920280762    2.41772747308977  -12.87782612757553
C          -0.97681574483160    3.52512063280058  -12.84822556852142
C          -0.91594145889986    4.36092499087430  -11.70937762110142
C          -0.16409768710862    3.77065867051196  -13.97364619325641
C          -0.23324361652678    2.96476665099894  -15.07709148053400
C          -1.11621944081854    1.87511883991031  -15.10560588338406
C          -1.91806526793691    1.60780300666627  -14.02948024597268
C          -3.32759001577237    2.89154210131830   -9.38173555659781
O          -4.18289146916502    2.09478627607065   -9.06376913433126
C          -2.74701543801246    3.96323205090200   -8.53219897242839
C          -2.97848539390135    3.97860692954401   -7.19656645689677
C          -2.21751191329877    4.67431259412366   -6.18565659865487
C          -0.83967027246126    4.60724912074232   -6.21605819340300
C          -0.06142582732092    5.15608852667794   -5.20257705496269
C          -0.64719228217719    5.77806424338603   -4.11920626253352
O           0.03398404160615    6.38990297514422   -3.12846841431610
C           1.44569679696852    6.36819072218010   -3.08669597337387
C           1.98927329145624    5.04740546380189   -2.54982342986137
C          -2.07347234833862    5.85903440592248   -4.03335593044835
C          -2.84865060738967    5.36021576520527   -5.10869926979351
C          -4.23844818363701    5.65934522402364   -5.16739455532635
O          -4.90452851162168    5.18647857642150   -6.25588907358230
C          -6.11067297024017    5.80250026297601   -6.66808464237088
C          -5.89747331517404    7.22664689442285   -7.16602270941368
C          -4.81971437759233    6.38877749537221   -4.15548881419123
C          -4.07139955756946    6.76768895592680   -3.04337009433063
C          -2.72528229619314    6.50033742066867   -2.94598727299507
C          -2.04217517263849    6.84365623846218   -1.68849304294922
C          -2.07634054346725    8.11590556794150   -1.19934790979938
C          -1.48393988579785    8.41217705613952    0.05534227166696
C          -1.39442739502022    9.58221942453390    0.78739113599264
C          -1.91569136956930   10.95291444740425    0.49660070574386
C          -1.72634023037350   11.39368956721092   -0.97380074756628
N          -1.64688074643355   12.82720153880924   -1.16559991752799
C          -3.39482253421000   11.07982656246150    0.92083837106321
N          -4.25583174002321   10.28181346312807    0.06895358403432
C          -0.72514006901114    9.24866307752900    2.02832217915368
C          -0.46791649761917    9.98325516321084    3.12488348509975
C           0.13544409826395    9.38487258676072    4.34410660890468
C           0.60115325741707    7.97052193447020    4.17426459052250
C           0.32600866736947    7.24396475950571    3.07667318180628
C          -0.37173183650990    7.82448309317340    1.98959290631717
C          -0.84668647624883    7.32484499272756    0.79525103927904
C          -0.84319740918321    6.01523432732069    0.25812585377699
C          -1.42881604919851    5.78525548390419   -0.94208288220728
C          -0.86874853029680    9.36888314962599    5.48300869360005
C          -2.18227057502587    9.38044438184411    5.29907165567490
C          -3.16879725905009    9.31655653580399    6.37811862990756
C          -3.06042285235170   10.19318179698643    7.43280092810648
C          -4.04389416347104   10.28559646479599    8.41483565791882
C          -5.16351807742618    9.48621820325496    8.35769120466110
O          -6.19710658563368    9.57514673035387    9.23334142410781
C          -6.20355648444106   10.59676257066792   10.21202602367473
C          -7.51457065620179   10.48818588612311   10.97516535378646
C          -5.28743675678147    8.50897510825415    7.32652787821676
C          -4.27832473255934    8.42699739062988    6.33090335629374
C          -4.39497702860480    7.42783596532554    5.31222497646969
O          -3.31827568535077    7.26778918418659    4.51330633804987
C          -3.34520306625440    6.37619345275458    3.41448530114270
C          -4.08244889351136    6.96265151314096    2.21590429592848
C          -5.54397321623184    6.66801300875234    5.22702505597531
C          -6.55788303476631    6.80912524166433    6.16382814837325
C          -6.43733531659454    7.67029206860386    7.23657120749200
C          -7.43285368803699    7.61781337434203    8.28071055619571
C          -8.77565159983211    7.66895285483750    8.08848024238804
C          -9.79763840493293    7.51610671265308    9.11061386131489
C          -9.60345960548097    7.17508584616140   10.42416446820029
C         -10.63964623490499    7.06190410054995   11.37415195880645
N         -11.43018612092225    6.96017241901516   12.20114506973584
C          -8.36204217552489    6.89469925317896   11.03158281663765
N          -7.40743936678554    6.64681903312337   11.62202344316436
C         -11.09133696520726    7.77849956951539    8.49089059078312
C         -10.88297412876367    8.10167334081481    7.12044032466894
C          -9.44003903648382    8.05453855945547    6.81460886750847
O          -8.92382854811180    8.32000050070299    5.75024930312322
C         -11.91923136391713    8.38965238702920    6.28038195710106
C         -13.24059145782562    8.36130988093023    6.77958606898940
C         -13.45880244102601    8.03970142313859    8.15001364414873
C         -12.36471931693082    7.75100320457229    8.99723860751537
C         -14.78132021887598    8.01395940835113    8.63838322446580
C         -15.83781552604564    8.29069478423083    7.81429892767287
C         -15.62150886868432    8.60583989045758    6.46446934729139
C         -14.35063700888844    8.64049644771451    5.95837339495320
H          -3.36998103002624    1.32006562801810  -11.75830211036054
H          -0.22399585540267    5.18854033028517  -11.71181927360578
H           0.51199631935553    4.61276469987536  -13.94791590579071
H           0.39185645305734    3.16286976289656  -15.93504686868187
H          -1.15802001076481    1.24902030495875  -15.98446384079668
H          -2.60033131782505    0.77033612156163  -14.04565001001641
H          -3.73723504583808    3.28630042282393   -6.84929389554959
H          -0.34967468223810    4.08486536329162   -7.02598904325329
H           1.01063908192281    5.08317818715021   -5.28958411489925
H           1.70155083438664    7.17845033195367   -2.39814158005301
H           1.87056048345687    6.60244882614061   -4.06992508058283
H           1.58409713665066    4.86559116785954   -1.55777914568778
H           3.07289296016033    5.09467562284967   -2.48706917667016
H           1.70858385067256    4.21808876809161   -3.19479196088879
H          -6.85576358640898    5.77546433664012   -5.86316357587671
H          -6.46429242008317    5.16382014565171   -7.48231013478648
H          -6.83813104344862    7.63635998481526   -7.52343475782484
H          -5.17530646955863    7.23009869322204   -7.97859882430413
H          -5.51076618514257    7.85940526873222   -6.37120962225694
H          -5.86513929162148    6.65126981954918   -4.18951353973805
H          -4.56610636348077    7.28116782555989   -2.23178431094472
H          -2.54299948604509    8.89839902173224   -1.77498794325740
H          -1.34900871989320   11.65492749171265    1.12396500433764
H          -2.56815030185412   11.03535949113230   -1.56605981032454
H          -0.80400878353143   10.95591529712818   -1.36388336195913
H          -0.88784386189483   13.22222206577248   -0.61960896612696
H          -2.50975107549182   13.27181755851166   -0.87279624675096
H          -3.71048336880792   12.12384912178650    0.81833984591908
H          -3.47078553141219   10.81493749028994    1.99199281045335
H          -3.98788439630725    9.30434277618415    0.11914609518364
H          -5.22057673046604   10.36060859443201    0.37021190333329
H          -0.73940048520725   11.02889950200591    3.19435394112972
H           0.98204835323898   10.01043983431816    4.66254637308645
H           1.12385939881325    7.53989508059169    5.01482691410813
H           0.64305410279649    6.21244020805714    3.00597043073648
H          -0.38637989832418    5.21261004513138    0.82083342875584
H          -1.45602548657763    4.79006908293053   -1.36292302667476
H          -0.44888794235866    9.24657034461502    6.47163226891012
H          -2.57933552151233    9.46287267277876    4.29706028820133
H          -2.21419492143663   10.86240606436595    7.47729991009820
H          -3.92139232888730   11.01022049508303    9.20356366178559
H          -6.12136650790782   11.58007633768287    9.72863807509333
H          -5.35767307734036   10.46582880994146   10.89995749131760
H          -7.57846404585851   11.28099054328922   11.71471835531503
H          -8.35275725101373   10.57342111549563   10.28765504551908
H          -7.57087370651114    9.52779114241027   11.48061643811996
H          -3.76577822008126    5.40710211697791    3.70645756973843
H          -2.29078001689855    6.23841520199033    3.16208682515011
H          -5.13320053564894    7.12904622564662    2.44270657944575
H          -3.99941452475115    6.28839986700783    1.36793728754168
H          -3.62606888469639    7.91241961929882    1.94918792853496
H          -5.66657699193500    5.93164641835930    4.44969560542286
H          -7.42720746575677    6.17462023815098    6.08889896229763
H          -7.05623160018017    7.49252575810661    9.28597693884240
H         -11.73225262028230    8.63205672107204    5.24460135745773
H         -12.56453133928620    7.51274049249175   10.02977864731925
H         -14.94281094263283    7.76931958528405    9.67819570812127
H         -16.84687417102501    8.26689277057809    8.19769504317347
H         -16.46680144694662    8.82046055785498    5.82801682794812
H         -14.17744027605841    8.88223458761934    4.91979694386030
