136
 SCF done       -231.969358056673          0.000752585682
C          -1.23668599208692   13.63384834137592    8.56620149269569
C          -0.73851229022890   14.53627706735741    7.65516152942618
C          -1.06770089658852   15.90511771507945    7.64417113211737
N          -1.30447871395598   17.02700558842831    7.57708561516911
C           0.23158519609541   14.22252318488018    6.68726427429664
N           1.05107331293654   14.02711347711586    5.90556803298418
C          -2.04511958288899   13.98054600380805    9.73189411410850
C          -1.98584491579263   12.89916642576668   10.65867571172512
C          -2.62898657177224   12.95022343950858   11.86041966853562
C          -3.38866669344275   14.09755993297916   12.18721261111263
C          -3.47097834323996   15.17059308808008   11.25418697771254
C          -2.78226611106155   15.09563581838855   10.02051307628815
C          -4.24517071770719   16.30047258415856   11.58486926697054
C          -4.90384502301364   16.37198484747552   12.78240428423428
C          -4.81907523003943   15.31704160804558   13.70242133638648
C          -4.07739259453868   14.20409015571308   13.41101250367790
C          -1.18390192630000   11.80696795366089   10.07469440055758
O          -0.87459913853577   10.75218287401894   10.58553621519180
C          -0.87736621005442   12.24461538717221    8.68852481064208
C          -0.38133301484992   11.32883246061921    7.79511858632494
C          -0.37302717935154   11.36375919999359    6.39513595425173
S           0.79171719208536   10.40483636687726    5.53373583870574
C           0.30433779960657   11.00969497349953    3.98911077606616
C          -0.78651196424976   11.89378255437624    4.12732078865727
C          -1.18698118733696   12.06767535505495    5.48299287654651
C          -2.33968955179228   12.81283055257777    5.76338841673569
C          -2.99997428570042   13.45796986082760    4.74187574455527
C          -4.15663249811046   14.21352668786001    5.03729265626166
N          -5.09078441401428   14.81536689871734    5.31764105160196
C          -2.54201335430880   13.36917835971961    3.39221150815790
O          -3.26000916298643   14.08309510262924    2.49750871748108
C          -2.86634392721840   14.07072810921552    1.14633988653778
C          -1.46521185962561   12.56623197712871    3.09713225061580
C           0.94715182178240   10.62680915445480    2.79428811458252
C           1.96167434942637    9.72591886634821    2.72861860834711
C           2.63605172761583    9.27082990285128    1.55066168108255
C           2.38760554813996    9.78206751174896    0.29172100740091
C           3.05065596358933    9.26599300072139   -0.83603478152149
C           2.96185663395434    9.58024769930797   -2.18739125019313
C           2.15110662180537   10.64107767069881   -2.85192996121682
C           0.64502381317602   10.32411782142795   -2.78566133717395
N           0.33913138938693    9.21773176832765   -3.67852000098366
C           2.44082018749876   12.03825705965864   -2.27522367494305
N           1.80437514521775   13.05358732910392   -3.09943845722566
C           3.81382669173416    8.64876233370922   -2.88547129218932
C           4.02374808631367    8.45132808609357   -4.20009921335593
C           4.88798290962473    7.34668076205977   -4.69459533554127
C           5.60410210164600    6.58071714177542   -3.61897353320640
C           5.38550224490175    6.79505977666299   -2.31057835356267
C           4.47053334391660    7.79082387653247   -1.88938313078546
C           3.99747674051273    8.16899293137737   -0.65324492360147
C           4.25947933185842    7.68202336908163    0.65036325920688
C           3.60550464248378    8.21943505487211    1.70646952155637
C           5.87382247291214    7.76667854764302   -5.74860797963162
C           6.22669718258247    9.03400135193607   -5.99171325920183
C           7.16372906046000    9.47227288352553   -6.98214755554220
S           7.94831486282878   10.98796305499455   -6.75814047806736
C           8.94633200492491   10.80432041427504   -8.17030475636992
C           8.61112707437414    9.61747382219314   -8.84593347471195
C           7.59365597363895    8.86623911145657   -8.17280817223835
C           7.08954089754907    7.70491177085850   -8.78312581245794
C           7.60551123280488    7.28027700883746   -9.98320623997765
C           7.09106824470028    6.11221797864933  -10.58963505844152
N           6.65004625601729    5.16067964687498  -11.05193496238229
C           8.63052601448197    8.02178750351131  -10.65285894085150
O           9.03072208409655    7.50138461332690  -11.83111614910154
C          10.02787333493482    8.16937940228467  -12.56794457941615
C           9.10032178029384    9.18436434914128  -10.09184230351848
C           9.87725803187226   11.81696629414065   -8.47000352203486
C          10.99772784880680   11.68389416808760   -9.24130144355531
C          11.84555255046810   12.73905626977214   -9.63033780874210
C          11.50426086301955   14.05539668661731   -9.82450482176715
C          12.43523465605150   15.10410135210987  -10.18457690791412
C          13.79483132363263   15.08081098001903   -9.99665174610949
C          14.65800624816994   16.13435081793596  -10.35792164884573
N          15.41142047061422   16.95448126746473  -10.63848278025610
C          14.50499590536549   14.02365038580484   -9.39215151919528
N          15.14526314345999   13.21180072757687   -8.89132382116406
C          11.66881620608049   16.22651959251515  -10.71212475909875
C          10.28562478142494   15.90415021985022  -10.61983714235905
C          10.12652549007637   14.56707979602563  -10.01896908115942
O           9.07036799176331   14.00693684201619   -9.79911556991687
C           9.31386114697222   16.76486912605391  -11.04033521016871
C           9.68918488209513   18.01441121078896  -11.58322867749211
C          11.07154804298657   18.34312959363499  -11.68338110970666
C          12.05572960227128   17.42928287952304  -11.23927687464547
C          11.43400602813502   19.59049170708407  -12.23034939866623
C          10.47866715033670   20.47294228421502  -12.65635493827279
C           9.11780828189231   20.14854421818061  -12.55618229333941
C           8.73158184031174   18.94537604598986  -12.03057277252981
H          -2.56472316825908   12.12480639615054   12.55385988147258
H          -2.86914777893658   15.91723189839123    9.32665042685211
H          -4.30551358936495   17.11065712178653   10.87314639385732
H          -5.49398686090763   17.24260355948493   13.02681254878180
H          -5.34519225979276   15.38918863630436   14.64273317711094
H          -4.00988597752171   13.38762217241290   14.11532342225010
H           0.03036685902824   10.43377402644332    8.25312217388748
H          -2.73634314669065   12.86238111406292    6.76525534984968
H          -3.55820371106293   14.73769003458951    0.63564534929168
H          -2.94530635343359   13.06737181271101    0.71554294438424
H          -1.84463553329982   14.44354957623356    1.02487518081000
H          -1.13524993981770   12.44020312115917    2.07950463755096
H           0.57494531338930   11.08958492062391    1.89203569395298
H           2.28990002770173    9.28017858275350    3.66044221805423
H           1.66874544294557   10.57542682885965    0.16454464187238
H           2.42443755136057   10.66971043958975   -3.91274401184627
H           0.09796944389208   11.24895186544146   -3.02622300693001
H           0.38044825320851   10.01343884323390   -1.77301594222044
H           0.42923338055260    9.51384434191925   -4.64513154422797
H          -0.61507207116076    8.90488320070333   -3.54136838488812
H           3.53397006547953   12.16139370760840   -2.19409928827556
H           2.02217257514848   12.12581253443816   -1.27168549021054
H           2.22467947236029   13.07126583549579   -4.02336723180171
H           1.93076732318567   13.97181862342195   -2.68838076345775
H           3.52860340076445    9.04554267900132   -4.95570430497228
H           4.20295772018782    6.63165456174733   -5.18730801929778
H           6.29707714564681    5.82574439951277   -3.95711578110094
H           5.90154662084335    6.20784746208412   -1.56496651107556
H           4.97332920482102    6.88274997675452    0.78482695606100
H           3.79119333658673    7.85411386376958    2.70603680674030
H           6.34578674943483    6.95103603291016   -6.27541565288634
H           5.81980786209130    9.82141800497526   -5.36931225989238
H           6.26960480706680    7.16209597731284   -8.34199218956778
H          10.19242080743295    7.55995849081470  -13.45434218815560
H          10.96020652187003    8.24431332433921  -11.99976022848894
H           9.70084070225702    9.16916475535557  -12.86941127485900
H           9.80872219843576    9.79984819531558  -10.61707075250325
H           9.70593574539303   12.76230779913823   -7.97591650819018
H          11.32463076082116   10.69160167703575   -9.52113292599921
H          12.85983651390445   12.45124393421968   -9.88219448790107
H           8.27075773617475   16.49686961248901  -10.95871251220682
H          13.09431680946420   17.70372249941093  -11.33496724942981
H          12.48317058879633   19.83647212438423  -12.30439065323687
H          10.76684165410223   21.42655516107740  -13.07271326708731
H           8.37701283083168   20.85625144426362  -12.89732593040141
H           7.68494455796246   18.68957983642876  -11.95088492515835
