124
 SCF done       -220.547454979493          0.000439778807
C         -13.86203637039691    5.58738588449417   -1.42086542460037
C         -13.17572938438962    4.40039755703988   -1.33217022844910
C         -13.51270870920406    3.23796150546997   -2.05591215185066
N         -13.73026060759214    2.25672150837809   -2.61147879371263
C         -12.04723538298216    4.15930788239388   -0.52393646334387
N         -11.12475309968478    3.88374316157837    0.10533988050079
C         -15.02941289983007    5.82665797010772   -2.26412946405643
C         -15.44516981995849    7.17881527695928   -2.09147870444852
C         -16.52050733555842    7.69555191451630   -2.75335645283946
C         -17.24772900856482    6.86678683595892   -3.63768986438430
C         -16.83977139997571    5.51385617528842   -3.81713735938861
C         -15.71972479736363    5.00737989309427   -3.11714838393051
C         -17.57238508506283    4.69580404096737   -4.70058680302762
C         -18.65672461755951    5.18847495875492   -5.37494819610400
C         -19.05762819112940    6.52061145683051   -5.19709016638559
C         -18.36769822740149    7.34219049483279   -4.34685675469093
C         -14.54950144104487    7.83947864326592   -1.12926315517547
O         -14.61037591322117    8.99663771771855   -0.75278666331032
C         -13.57415872600339    6.82061936805957   -0.71708859582923
C         -12.56554720244187    7.00205697036416    0.19312563411789
C         -12.19119223000778    8.13167192756726    0.93021532471532
S         -12.92295283763149    9.72609114333230    0.89579725365923
C         -11.80155164927589   10.31943903513394    2.06635936287945
C         -10.92348172687836    9.37105802609204    2.46361588271490
C         -11.11691971481057    8.11880821526758    1.83695848478207
C         -10.21638794961838    7.08722893728048    2.22398347548862
C          -9.29167365903993    7.45301172776304    3.14952202789108
S          -9.53255356252940    9.19815851029070    3.58311091191945
O          -9.94423358347347    9.33116980346744    4.95350059324716
O          -8.41351966552516    9.98919446940632    3.15050254326777
C          -8.24432631614681    6.76190732543521    3.78773898491754
C          -7.90234141229295    5.46657558306498    3.56039242064849
C          -6.82791046601434    4.75852879524921    4.19250192133534
C          -6.12682282200180    5.27729615236030    5.26337010951263
C          -5.04674366119563    4.56677237065312    5.81527036674210
C          -4.17839999697486    4.88430832898763    6.85326862519291
C          -4.15128876376463    6.07911313001483    7.73910221482326
C          -3.50393497754464    7.30130663901116    7.04264992345475
N          -4.25504350666006    7.68299244532195    5.86430488724363
C          -5.53399963459342    6.48697557118301    8.28131003178144
N          -5.35157511918611    7.21167158184065    9.52857519680869
C          -3.21285524865638    3.80968590739380    6.92464285617526
C          -2.13198183060346    3.64652499012703    7.70695649575635
C          -1.22860650432296    2.46524591424918    7.56051397583542
C          -1.67195695875010    1.47201928872703    6.53314080751677
C          -2.76115595842829    1.64820509133389    5.76314703416429
C          -3.55785658245241    2.81095669301891    5.90210955805023
C          -4.67236827478757    3.27760051939509    5.23963881123092
C          -5.43542958666104    2.74918210351413    4.16942512090035
C          -6.47519237305718    3.46322163397344    3.67511124455483
C          -1.05768381123821    1.81060159476401    8.90825452123728
C          -0.10271404349175    2.16135410898690    9.77291773725396
C           0.10882256580211    1.58128975946488   11.06938588433259
S           0.86712789581841    2.54356813965716   12.31143733903185
C           0.77425352054304    1.25971118558934   13.46761511197051
C           0.21041189231994    0.16597013150119   12.92323178061284
C          -0.17435518628773    0.31720192334092   11.55891616972221
C          -0.68544353966914   -0.87291252620039   10.95573430614023
C          -0.75152994248439   -1.95652356530437   11.76712608313302
S          -0.15837243778508   -1.51794124522447   13.42779338014096
O          -1.22628335720025   -1.53203150082609   14.38386406886248
O           1.05555016128616   -2.21257865793779   13.74278841660702
C          -1.16433178826944   -3.26792830482464   11.46000159087562
C          -1.14650862342814   -4.28610583366192   12.36157801591840
C          -1.53679586966598   -5.59273232486020   11.98186167275155
C          -1.53161801406857   -6.69223125855175   12.78924369511826
C          -1.89833466156556   -8.04586937711870   12.41131155090920
C          -2.35332266140317   -8.46585756282690   11.18704477847053
C          -2.69405047937957   -9.80113866369661   10.88365144041912
N          -2.98904196934573  -10.86398537609692   10.56483178408433
C          -2.55363567375106   -7.65032870973172   10.05418207695855
N          -2.74413660566114   -7.06358026451227    9.08475397364355
C          -1.69863229381947   -8.90263522565863   13.57457348984527
C          -1.23466540094917   -8.10325062438591   14.65792041589696
C          -1.12092792723308   -6.69925295225029   14.22258889333802
O          -0.77002313604519   -5.75824880312733   14.89733771448053
C          -0.95729900689968   -8.63742177626417   15.88291459483663
C          -1.13248325734508  -10.02466388722375   16.08591310055279
C          -1.59574344077677  -10.83246124805468   15.00738706026227
C          -1.87625528745897  -10.25036101395168   13.75040366143375
C          -1.76601057919914  -12.21604958589639   15.21936949902674
C          -1.49205452030515  -12.77641347214275   16.43708251322025
C          -1.03593050070096  -11.98004741042213   17.49832643400906
C          -0.86019464216996  -10.63366703888567   17.32659986450563
H         -16.81406046097772    8.72392282337649   -2.60360083467184
H         -15.43868469706064    3.97841391185148   -3.27540440490709
H         -17.26000681089695    3.67047807675166   -4.83430932159933
H         -19.21156576351763    4.55344936458386   -6.04925230073246
H         -19.91562896745712    6.89299967680749   -5.73658688382429
H         -18.67169762651247    8.36909899171884   -4.20565804008696
H         -11.94085870591982    6.14253759211657    0.39564036079339
H         -11.85787616940033   11.33890491103691    2.39393543898872
H         -10.27596490678757    6.09362455258985    1.80667990617612
H          -7.68971756805739    7.36388549616024    4.49416984633092
H          -8.46167705908894    4.91118604553709    2.81839707275400
H          -6.38146003197457    6.23859213663253    5.67340887785011
H          -3.52151076280628    5.84710662290161    8.60483512280870
H          -2.44753893730251    7.06493197208868    6.83108565101132
H          -3.54140501078154    8.12581330867687    7.75717415148043
H          -4.05508114093891    7.06264974059075    5.08803159088052
H          -4.03769970478641    8.63005310812038    5.58158142341476
H          -6.16721632563605    5.59060270975226    8.38345411622216
H          -6.00405267467474    7.16844316048978    7.57223086597956
H          -5.09059554276495    6.57767809416113   10.27694203815589
H          -6.21072823964086    7.67516719899101    9.79968228921378
H          -1.85559488163855    4.36319366898412    8.46846288263370
H          -0.24434335198447    2.85925763866119    7.26028695050782
H          -1.05422173164973    0.59204861562609    6.43568375817518
H          -3.03768824405805    0.90969519215050    5.02495980553157
H          -5.17574801529065    1.78524258357085    3.75740172851105
H          -7.06168032977007    3.07333906439746    2.85608389628382
H          -1.79393910151841    1.06259997298183    9.15931495100578
H           0.56951793837180    2.97353423424836    9.52346013751626
H           1.14552345828383    1.40755531863539   14.46124076386059
H          -0.96404823152645   -0.90364436051032    9.91371981635169
H          -1.49766276136083   -3.45747585926819   10.44389790097448
H          -0.81867307442020   -4.10552432489536   13.37506606826925
H          -1.85021678168852   -5.70989156312876   10.95155661491075
H          -0.60657906281186   -8.00753801030626   16.68686719335172
H          -2.22453054770850  -10.89052354957333   12.95566257014593
H          -2.11741112389628  -12.82473794187325   14.39911551397733
H          -1.62517488785608  -13.83700960405204   16.58952162230085
H          -0.82447337770704  -12.43904321334864   18.45254253154219
H          -0.50925137228855  -10.01563706346725   18.13998737520130
