110
 SCF done       -202.107637412563          0.000587316234
C          -7.46154512835298    6.95718711109798   -5.21112293628288
C          -8.37557654378604    6.49394195699395   -4.29570259247188
C          -9.60393722452916    5.89808608844506   -4.64576496372895
N         -10.61256956043531    5.40135210373759   -4.87572713404496
C          -8.22679597816295    6.66884880407390   -2.90677709521443
N          -8.12821111468106    6.80829629022032   -1.77130944240633
C          -7.68005488288853    7.05033508308861   -6.65090604310054
C          -6.75265330802615    7.99075596245959   -7.18785625107189
C          -6.74143478031084    8.30766601116134   -8.51522081545261
C          -7.66256085380119    7.67629479565854   -9.38206557485716
C          -8.57913244921768    6.72193562316312   -8.85369779268597
C          -8.57531566770533    6.42103048774809   -7.47134370718632
C          -9.48455319515633    6.09248557007647   -9.73117477766298
C          -9.48864446796540    6.39184105293802  -11.06667577045599
C          -8.58728915890468    7.33272590552739  -11.58575946961489
C          -7.69397206719907    7.96152983087030  -10.76117540005514
C          -5.87744563212531    8.48028199022621   -6.10830744316721
O          -5.01215922606978    9.32324259855775   -6.16744890205930
C          -6.24190856136649    7.66381386118378   -4.91244889781212
C          -5.38984753280335    7.64163384355508   -3.84747684566641
C          -5.26041089286442    6.68433357209700   -2.82422210832812
S          -4.31315296486361    7.06325291977395   -1.39865457455004
C          -4.49067621470265    5.47374901058390   -0.70568078147354
C          -5.24370258981281    4.70289315395407   -1.57088511360144
C          -5.67386106391669    5.36626123199899   -2.73739644255935
S          -6.51287615180236    4.25384627461402   -3.77407299961634
C          -6.26548217544094    2.96042580523713   -2.56361861884639
S          -6.77979720007707    1.43673609623482   -2.72922846114432
O          -5.59881123414031    3.39676229849295   -1.49815401409255
C          -3.88524305650055    5.12172936608500    0.54675724962722
C          -3.08216416856333    6.02963565520226    1.20077285551896
C          -2.44266475221384    5.66464831054635    2.39843848310959
C          -1.56407758810702    6.37016001984147    3.20967532206448
C          -1.09500200526734    7.76721743666302    2.98895339563729
C          -1.28054566961268    8.65786474141480    4.23229438885023
N          -1.57312841526047   10.01322228054812    3.80836752876359
C           0.36481770469226    7.77627465140720    2.49621693407957
N           0.42314992285747    7.20136131252383    1.16647818602037
C          -1.16011820396273    5.46793744955600    4.26392739668294
C          -0.27788162043686    5.60122868337971    5.27187837658016
C           0.03391632531049    4.47693605634837    6.19927089200009
C          -0.78357543736996    3.23864280640342    5.97687980931200
C          -1.66915217141132    3.12300728061009    4.97105821095164
C          -1.87147844818989    4.19194811158187    4.06669991016117
C          -2.64460178256432    4.32372358132065    2.93312778882403
C          -3.50601085145307    3.42813001732877    2.25503977556347
C          -4.10320711001405    3.81383404384678    1.10104453841709
C          -0.12882838362498    4.89679314263633    7.63291043254957
C           0.78101063581376    4.64217270267371    8.57896547618667
C           0.63455866517080    4.95051308148557    9.96496550408926
S          -0.73390166071044    5.79305459243316   10.64304353180115
C          -0.09748619410311    5.73727000670574   12.27631564628074
C           1.10417063534169    5.05295745692743   12.25879247936779
C           1.51085602178893    4.62996464687488   10.97699713953028
S           3.01568666060374    3.76360839228779   11.09677433436899
C           2.97418905245623    3.97823056838420   12.86815287712169
S           4.08685722784768    3.41011001177828   13.89419343199770
O           1.89711786548203    4.65499363618638   13.26719938559980
C          -0.83262735364086    6.26780498036240   13.36304440184443
C          -0.29060365090031    6.69560184637882   14.53835934891036
C          -1.00494511172718    7.01962940966028   15.76061897022410
C          -2.34161895895177    6.83158659657357   15.99859469071738
C          -2.97923189110905    7.14013984766493   17.21901658353375
N          -3.56049913324595    7.37457659645900   18.18067770552965
C          -3.26480460843773    6.29945868087662   15.07459548973197
N          -4.06768420847740    5.86517026334199   14.37752743544846
C          -0.02957039739505    7.51032649288751   16.72635427062971
C           1.25716271430189    7.51956215294976   16.11468761377563
C           1.14231170987822    7.05660114734425   14.72456723608531
O           2.00547382265901    7.07826471656724   13.87292073638328
C           2.37533478528909    7.91799184950572   16.78875770522327
C           2.25791367659294    8.32568557307843   18.13641894828562
C           0.97370556993710    8.32689455509012   18.75433777562187
C          -0.16725045997480    7.91554858115563   18.02821394537355
C           0.86703063704871    8.74036162346234   20.09798594455805
C           1.97480660797786    9.13093238980344   20.80002783857974
C           3.23884973821944    9.12678920722937   20.19144596800679
C           3.37755838619731    8.73258921196115   18.88800171625514
H          -6.03693179253324    9.02898341027889   -8.90200870206848
H          -9.27310895663305    5.68818944054101   -7.09707381477906
H         -10.17834511502345    5.37042201995202   -9.32637030403519
H         -10.18727725869676    5.90490362284573  -11.73045295253038
H          -8.60352650540081    7.55665189183106  -12.64197588326806
H          -6.99696891716822    8.68666555688364  -11.15531287116217
H          -4.65052698265899    8.43651276341981   -3.83531486377589
H          -2.92249191422047    7.01141818853708    0.77944549084652
H          -1.70141907606909    8.20995123654702    2.19469606751177
H          -0.39084082056404    8.58628579989558    4.88152659643071
H          -2.14270419549783    8.30173761550458    4.80326622813150
H          -0.79004717803807   10.40947188627186    3.30053121587783
H          -1.76772293606061   10.60930819839985    4.60423284158694
H           0.99893373821752    7.25062185521098    3.23205984379599
H           0.71651937575976    8.80925739480979    2.42111049492186
H           0.11055560226357    6.23618845848750    1.18617182779456
H           1.36892056719403    7.22212250682963    0.80330357872148
H           0.25832880894234    6.52202357533009    5.45123475498391
H           1.09353177208456    4.21483967902830    6.04811302317874
H          -0.61319151034920    2.43410683888378    6.67518285255066
H          -2.22756410201472    2.20875409387219    4.83342579735790
H          -3.67447548893393    2.44133148059625    2.65911934769766
H          -4.75579247108944    3.13609683073214    0.57658252606736
H          -1.06590735263214    5.37214225764776    7.88732596938440
H           1.71362311839592    4.15040761356539    8.32932728330037
H          -1.90239255887575    6.32586477441161   13.21096900311882
H           3.33948923490917    7.91244096356614   16.30244266472473
H          -1.12486226428892    7.93146372078125   18.52385006084169
H          -0.10804200645331    8.74004523866068   20.56265281760518
H           1.88307507597131    9.44451864315355   21.82909501531365
H           4.10224145397065    9.43732120714375   20.76056342843012
H           4.34835342044686    8.72674013278236   18.41450002348174
