126
 SCF done       -202.041939004336          0.000909083763
C           2.91153617941413    4.16242294945380    5.72316015672795
C           3.08062320442847    3.52825774733460    4.51599963391807
C           3.82470691375243    2.34418927841103    4.34706507916514
N           4.39625556383854    1.36762317817994    4.14910467480794
C           2.59685404111336    4.00840540765178    3.28438337594471
N           2.27030902339869    4.35407765716903    2.23906101127550
C           3.60509116105134    3.80370895302073    6.95767531653319
C           3.52690076768948    4.90579582635269    7.85719904955652
C           4.11323399228415    4.87002988252029    9.08836873648661
C           4.80727736532909    3.70482670886461    9.48818472172274
C           4.87452111349934    2.59340689204797    8.60019658612832
C           4.26347278790630    2.66230809175290    7.32645117402908
C           5.56176548511200    1.43438360631428    9.01335823317383
C           6.15838013310823    1.37489031803810   10.24337866329365
C           6.09287201318568    2.47023197019988   11.11685286513930
C           5.43205204781668    3.61033533716165   10.74697931967448
C           2.73198606071225    5.98170802168062    7.23446175159996
O           2.49386625550050    7.08302426241979    7.67942546988305
C           2.22700644776743    5.41147284917564    5.95715716146480
C           1.25382729791370    6.08412907583382    5.27620600699841
C           0.37837817197923    5.65814074203090    4.25171567179495
S          -0.12510972686384    6.85944770042325    3.08444511529131
C          -1.04782645789453    5.69240300951131    2.20450370501923
C          -1.01374485994669    4.45536823174090    2.81546071929505
C          -0.21780259384323    4.43485102415882    3.97792465038726
C          -0.20360486542464    3.24352486810409    4.88370119775655
C          -0.46865718173176    1.96112564626905    4.09954324246887
C          -1.75144030529361    2.11084639106759    3.29105950574827
C          -1.57977652350357    3.19498846609750    2.23118684754157
C          -1.68880371930970    6.07314546830405    0.95747205212417
C          -2.98667396217040    5.72907911658141    0.68920156867461
C          -3.55185965890395    6.04050295864172   -0.56734562234865
C          -4.79314141853838    5.73784800957165   -1.10508105872294
C          -5.87900889312422    4.98832022834998   -0.40101636616427
C          -7.11857627067934    5.85360342032497   -0.09404943107327
N          -7.74586950026493    6.39015133769334   -1.29185649385503
C          -6.25429755575752    3.69357103257595   -1.13865637016432
N          -5.09676509302771    2.81296726083130   -1.16174438210711
C          -4.77559403907073    6.21176633399819   -2.47210987938897
C          -5.67063968218806    6.11062713032899   -3.47333098617384
C          -5.36589619898469    6.59847895567603   -4.85213720097042
C          -4.07690604539544    7.34291074314484   -4.98103876057501
C          -3.19404473052347    7.44177325489968   -3.97021474755542
C          -3.47429062859581    6.85847068950847   -2.71183231873164
C          -2.74081816261095    6.74774857531194   -1.54846326175921
C          -1.43009690447667    7.15601519280715   -1.20703956022796
C          -0.92563063148014    6.82804529739759    0.00828781769571
C          -6.53076865295311    7.39369167747504   -5.37681917117015
C          -7.54484333344990    6.84309529450630   -6.05142413413174
C          -8.67178726632780    7.55905092846432   -6.56828421970967
S          -8.75045625520150    9.28464021668042   -6.52391015900159
C         -10.30697203005906    9.26538332449409   -7.31793628115699
C         -10.72263466809239    7.94735462718333   -7.57329181879075
C          -9.79122126806097    6.99228064686263   -7.17168567091773
C         -10.00089574313342    5.52069474509937   -7.36038261919924
C         -11.11864714492984    5.25305129164594   -8.36533080259760
C         -12.33611126486153    6.10354510641980   -8.02532499985599
C         -12.01621328397598    7.58280771588339   -8.22984973158921
C         -11.05614732903617   10.38575640610914   -7.69373694696449
C         -10.79594690897266   11.72876393179156   -7.57559909382953
C         -11.66763443456104   12.78729545830621   -8.04318010304342
C         -12.91934388855081   12.65649289016751   -8.59363609406133
C         -13.71230765064594   13.74087051069871   -9.02190406958725
N         -14.41393209427835   14.57074215646957   -9.39362738197851
C         -13.60866432834964   11.44609953980921   -8.80551345580031
N         -14.24268436920223   10.50860799181445   -9.00884503306522
C         -10.98433307154154   14.05604030970703   -7.80835035999336
C          -9.73677472041481   13.78807284188439   -7.17598165693869
C          -9.58930344416197   12.33339840642802   -6.99889737661254
O          -8.64791787240349   11.76045483309197   -6.47768514742250
C          -8.87245642321508   14.78530825276720   -6.83039260725060
C          -9.22122550095313   16.12637041218602   -7.11016551087937
C         -10.46507616734262   16.40349890645052   -7.74586806022445
C         -11.34106855261306   15.34753857482923   -8.08971350458505
C         -10.80214765957563   17.74343188309000   -8.02384264914738
C          -9.95264170595072   18.76306278158872   -7.68982040316478
C          -8.72825144702153   18.48920740446592   -7.06313053605075
C          -8.37035573724872   17.19879175261888   -6.77954327510814
H           4.04998031294558    5.72018443272154    9.75144573027971
H           4.32290607957268    1.80224112452820    6.67776986531338
H           5.61151823638629    0.59451671185649    8.33566060914727
H           6.68458902861849    0.48305308892763   10.54967728765848
H           6.56854056118908    2.40649967784384   12.08421543724039
H           5.37846673363739    4.45710966218426   11.41575661824392
H           1.13082188264696    7.11796313564395    5.59068272991154
H          -1.00313034960954    3.38129938896251    5.62207665698557
H           0.72889841904596    3.16713836287383    5.43964508478088
H          -0.54945892893763    1.12146438094869    4.79228120227433
H           0.36759873771605    1.76438199386796    3.42468850526960
H          -2.57276010523899    2.37566157422637    3.96132257300380
H          -2.00605147736728    1.16818715973751    2.80423743363890
H          -2.52433987716824    3.37701197066353    1.72234291758258
H          -0.86880641864121    2.84539466130670    1.47432321387523
H          -3.58425754162029    5.22757399406028    1.43534991349410
H          -5.48052651833303    4.67583367936475    0.56951585095682
H          -6.81141797869478    6.64198822718923    0.61294449332873
H          -7.85217250702436    5.21859589130060    0.41054265514301
H          -7.19743797383546    7.16639093229061   -1.64778709806109
H          -8.66787800434682    6.74820316831338   -1.06830844000302
H          -6.64765462647285    3.93273909189956   -2.13576062350130
H          -7.04407712656522    3.18240555908607   -0.58017459394168
H          -4.32322891832171    3.27312665434105   -1.63190173101851
H          -5.30862411221750    1.95943154882482   -1.66645477802015
H          -6.64545417822338    5.66775997018888   -3.33213659752198
H          -5.28989117881825    5.69000612514892   -5.47464902310008
H          -3.88084477571509    7.78501831668318   -5.94589381530786
H          -2.25900100217975    7.96605679295433   -4.10492106353536
H          -0.84063360666012    7.71187498674077   -1.92108386060592
H           0.07992198109917    7.10903135624121    0.28340119576809
H          -6.52447314101477    8.45220698581858   -5.16000322377677
H          -7.54176307679872    5.77562141031962   -6.23569253797982
H         -10.26077714902962    5.07363861653570   -6.39517097094133
H          -9.07541505982896    5.05113623600027   -7.70140007557416
H         -11.37745035478273    4.19317177121849   -8.35016121960184
H         -10.77430124251455    5.50175887913398   -9.37143113318543
H         -12.61818053917443    5.93047328668353   -6.98458505144634
H         -13.18291976964432    5.82730845938384   -8.65446695902218
H         -12.83411806453405    8.19231136649974   -7.84016844642109
H         -11.94056109053390    7.79340215017530   -9.30204170246371
H         -11.98735381459194   10.12977548989585   -8.18092001686752
H          -7.93253094913842   14.55526831877402   -6.35081683733773
H         -12.27435533234917   15.59193961537321   -8.57131019656078
H         -11.74653163841562   17.94880642586723   -8.50640313670725
H         -10.22015290773345   19.78641355309093   -7.90688361910863
H          -8.06970401016248   19.30548001487341   -6.80607470800955
H          -7.42825283138642   16.98207388192299   -6.29726027806337
