92
 SCF done       -173.505142420009          0.002503895937
C           3.37868049661698    3.75691374154687    0.88968893566125
C           3.67761136087846    4.44869641749308    2.03081664490363
C           4.90245927482932    5.11013764603994    2.24665563903336
N           5.86167171797915    5.71048996515914    2.44512888614703
C           2.82578459561779    4.55772398402936    3.15329429038357
N           2.24607892308491    4.61667000641737    4.14305231598835
C           4.33297339131976    3.38753335522298   -0.15065649057185
C           3.77436178625417    2.33224130670590   -0.93055501348883
C           4.46698335631139    1.74922424557691   -1.95287256520603
C           5.76771408760294    2.21014999542477   -2.25671735628276
C           6.32568253199091    3.27607405225918   -1.49341407884042
C           5.58882666745787    3.85489274815929   -0.43469039788861
C           7.62102432331315    3.73262050597578   -1.81165992321258
C           8.33327587262874    3.16403895796910   -2.83220649559715
C           7.78381539068109    2.11320539808820   -3.58191419727640
C           6.52896208755005    1.64594450624852   -3.29951422008091
C           2.40975917346444    2.04159044949036   -0.45584764462490
O           1.64877140710339    1.18783829187212   -0.84766905765634
C           2.12968937270756    3.08172781882908    0.57921765377136
C           0.85105980881560    3.34820570386898    0.92507254552467
C           0.38077078925460    4.47689667200973    1.69874830980902
N          -0.67257452644686    4.27114994843777    2.43074451733760
N           1.12899828903387    5.59893121597849    1.62674305183701
C           0.62276845649309    6.78225546395733    1.87328181431163
C          -0.77432980780674    6.88789025254834    2.22676068637413
C          -1.75801893161681    7.57580109541318    1.59310263066185
S          -3.34944187418153    6.97679223389094    1.72875938070133
C          -2.99932658181474    5.91441380681954    3.03452253385642
S          -1.30785001710879    5.56019205710154    3.29782645405702
C           1.45340647247275    7.92493582828266    1.69295873295531
N           1.06705606819603    9.19388668967250    2.07382694494284
C           2.10525695295051   10.03881196313057    1.84115531206706
C           2.52832130036528   11.35747719181686    1.95054882146489
C           3.83658564875643   11.38868321389496    1.44270340992291
N           4.19678152895402   10.12366858284895    1.02320856465356
C           3.16498218328607    9.28022302294388    1.27159149137743
C           2.75416140540611    7.95571944956907    1.18048191484609
C           4.67548125024783   12.52111659407229    1.35965590477238
C           5.90050564821173   12.57142309340573    0.76880283802586
C           6.67041634387381   13.73078085037214    0.74605014815655
N           7.58618217030448   14.40220825624762    0.18767941800762
N           6.83224769636952   14.98791083081999    1.34895752281965
C           5.92853622501366   16.04032920118687    1.17427035910529
C           6.13440425427922   16.98278417825939    0.13757371684182
C           7.16674594154352   16.96860997639125   -0.77490653374171
S           7.24427803564771   18.21080150672340   -1.92061665023739
C           5.88403107651220   19.03407786985587   -1.38725767889555
S           5.02983831932160   18.36396131171926   -0.07297762218023
C           4.91909308874766   16.26803749850654    2.10331801091278
C           4.55756596267541   15.63012717552020    3.28436341744825
C           3.45437401155260   16.07631446836908    4.09333410256796
C           2.50268924983602   17.02870693623293    3.77791378231385
C           1.43139566572926   17.37994474430790    4.61988504286481
N           0.52722238016130   17.71975229971769    5.24411319589007
C           2.42628646035838   17.77497001129655    2.58995427287637
N           2.27926690872306   18.42987238541087    1.65284457151369
C           3.46695787395047   15.31361646038479    5.34042239447106
C           4.53268866410242   14.37551699582032    5.27379944564027
C           5.23228574689163   14.51661826581490    3.97780112796996
O           6.15511935066521   13.81760562751103    3.60261953174915
C           4.80683276433509   13.51678846043659    6.29590087174975
C           4.01423868180381   13.56455158798118    7.46700836548370
C           2.95142593294521   14.50792059279930    7.54737205272718
C           2.68827528087089   15.38038930477413    6.46394202419518
C           2.17422641331982   14.55600928289843    8.72202198219763
C           2.43185321150482   13.71219069655146    9.76859978562382
C           3.47804252733560   12.78201645231412    9.68738342074055
C           4.25213709759464   12.70986293377573    8.56027243225367
H           4.02746365902858    0.94476761915239   -2.52369913663011
H           6.03587941423418    4.66193804669903    0.12440313154235
H           8.04177765361508    4.53896252750932   -1.22882039236366
H           9.32504743180376    3.52037374674283   -3.06738403062858
H           8.35989554622112    1.67597582295198   -4.38381133362472
H           6.10089344381378    0.83667336963664   -3.87277237929882
H           0.09216710996639    2.64802512766910    0.59871343155544
H          -1.57856489144103    8.35123266811993    0.86915316879940
H          -3.71846191560229    5.13831077989204    3.22338460120704
H           0.19662733833688    9.41723880746505    2.52575367709527
H           1.99416570211243   12.20162558194036    2.33823930629943
H           5.11032198568595    9.86480847991309    0.69334547411941
H           3.28518619251386    7.10758906689677    0.80134643957484
H           4.27066473905466   13.42614568817634    1.78840633089840
H           6.33694839553458   11.71761685073948    0.26939209502474
H           7.92739293877008   16.20845422068450   -0.79224053250926
H           5.55729927864695   19.94457312418298   -1.84591883154366
H           4.32167560462862   17.14093556800486    1.87433522008130
H           5.62292024840678   12.81343118426845    6.21694798956844
H           1.87745130269103   16.08483369433200    6.56034542864328
H           1.37037824750145   15.27540658232077    8.78030114779151
H           1.83197506253689   13.75897256911757   10.66522003663189
H           3.66916464307020   12.12367445876421   10.52204126697278
H           5.06060365175375   11.99606077973895    8.49225259390167
