116
 SCF done       -193.605874353028          0.000502878874
C          -0.14054439468921    5.59071567726966    7.92766081682673
C          -1.50617686154206    5.46012186405189    8.03152269676256
C          -2.42001429348635    6.47904314169099    7.70531819049854
N          -3.20856634734318    7.25988755429462    7.40695009501450
C          -2.15110374063924    4.31569768202724    8.53515583862493
N          -2.72536678054324    3.43044244727407    8.98949051490466
C           0.56397924678332    6.85245795756337    7.71037798007617
C           1.92367711787374    6.68076004987959    8.10082296765149
C           2.81963121063752    7.70774027617636    8.05111920549156
C           2.39342083559459    8.97321148150588    7.58533212079494
C           1.04153836417440    9.14552339785213    7.17284035314569
C           0.13167723786872    8.06452132889468    7.24625283537788
C           0.63150221802805   10.40864116278579    6.70134637050809
C           1.51150351701696   11.45504843528170    6.64471350536189
C           2.84182036284407   11.28552311430836    7.05454837585349
C           3.27313435430064   10.07071470140964    7.51442423067395
C           2.13499713373795    5.27810226506910    8.51166868603877
O           3.15109806558336    4.77598212382471    8.94052028606756
C           0.84900080870914    4.58995524826838    8.23350244764498
C           0.81587502098919    3.22075461161423    8.22648526997483
C          -0.12744297895650    2.36088683261069    7.64261240534008
S          -0.22193323327799    0.68906638911417    8.18408155279655
C          -1.54835901886360    0.34387142106625    7.13559281304819
C          -1.87984381382296    1.41988534911996    6.38543217751667
C          -1.06975241679554    2.56344046686986    6.64007016234830
C          -1.45259858926916    3.59734555743571    5.74165904994124
C          -2.51802829022740    3.18846083537934    4.98771829060085
C          -2.88550998621515    1.76164727710204    5.33826165864441
C          -3.23941762879111    3.96609776266581    4.01798235007033
C          -4.25442647869807    3.40246545884504    3.27090206383792
C          -4.95943554357702    4.17048045327684    2.32737402350307
C          -5.99950718209056    3.83458548123125    1.46678205733376
C          -6.70445173245306    2.52610612061175    1.40732333682342
C          -8.11187401049758    2.60699321573368    2.06138408501247
N          -8.86470864041035    3.72899259737585    1.54566832810362
C          -6.83798668124639    1.96038131437543   -0.01596366710726
N          -7.12373491051500    0.53498523499759    0.06121954136861
C          -6.32653053558434    5.03082030150590    0.72711696068219
C          -7.25130281324168    5.26878396755984   -0.22400124543073
C          -7.44928524914310    6.62501136758349   -0.80312252077041
C          -6.53948327016177    7.68219588449468   -0.24693397644748
C          -5.59915397944873    7.41888642673145    0.67698055299217
C          -5.44587300473776    6.10926670752030    1.19353327332007
C          -4.61298415248664    5.57429788280720    2.15387943760683
C          -3.57892281854851    6.13306759977415    2.93980525065990
C          -2.92035835219345    5.35562091545484    3.83282882507427
C          -8.88425692436064    7.05627265993677   -0.61666674806291
C          -9.48515118790179    7.94126436133295   -1.41837626849957
C         -10.82897267493692    8.41377042874218   -1.27909586092012
S         -11.29911675481444    9.86248818875335   -2.12630022790203
C         -12.92282674463825    9.79864526299895   -1.52115332161490
C         -13.09622924157344    8.72377900001218   -0.72568012829432
C         -11.91648902264599    7.91964842608888   -0.57679675962682
C         -12.23603314836627    6.78881783811788    0.21960491396351
C         -13.55915677351927    6.84164719437125    0.58971480087324
C         -14.20890275462395    8.10048632899294    0.04198121140469
C         -14.35624386181640    5.95724701168382    1.34509256963892
C         -14.11589988351541    4.72505286602629    1.90074300353255
C         -15.12622425825621    3.95974316991301    2.61627016241562
C         -16.35878733157778    4.39335722130344    3.03565919972665
C         -17.28166972774411    3.58699936719354    3.73471917578169
N         -18.08352939745795    2.99134211416623    4.30110459370146
C         -16.89327518562301    5.68858864802282    2.87532038328597
N         -17.40910594062190    6.71328075711045    2.80410327823362
C         -14.58707568739453    2.62714038980430    2.86781661764435
C         -13.24304480757403    2.59443294483864    2.40330189141952
C         -12.89426578122987    3.90118661854906    1.82516517021612
O         -11.79832129212083    4.20233341947475    1.38572140652969
C         -12.46650278315673    1.47642668598565    2.50453082597016
C         -13.01486171149778    0.30892754111637    3.08028781418378
C         -14.36276350490456    0.32866930848418    3.54034394848252
C         -15.13918825198312    1.50568175143056    3.42735357764418
C         -14.90304102528394   -0.84388981865719    4.10578144168896
C         -14.14931819364640   -1.98119397970454    4.21284702492412
C         -12.82172504535374   -1.99837877229286    3.76048113567411
C         -12.26586459544701   -0.87716361022037    3.20632243645567
H           3.84285209064076    7.55938970220336    8.36300411962942
H          -0.88614998545252    8.22311331085343    6.92502777699640
H          -0.39535619803153   10.53509212966518    6.39030547553249
H           1.18639901718669   12.41988987997052    6.28467502793394
H           3.52339057472958   12.12163567407987    7.00400544981301
H           4.29702211372267    9.93388574968882    7.83069994926617
H           1.66987176046873    2.74474017873979    8.69906634698016
H          -1.99127882673203   -0.63235398226642    7.15944056456823
H          -0.94288747281885    4.53736344524511    5.65142053104696
H          -2.81637654838369    1.10252727335590    4.47038036205784
H          -3.90150693879245    1.69942607585468    5.73360760675140
H          -4.51213596599418    2.36176966229579    3.39977380470539
H          -6.12884876482254    1.79846271226582    1.98983931874011
H          -7.97982083382921    2.64359269616091    3.15405048008002
H          -8.62450387285062    1.67762420620533    1.80475281038540
H          -8.64824996646250    4.57336435938429    2.06086333066497
H          -9.86678495623836    3.58455498581576    1.58002053520290
H          -5.92232849248746    2.19159849667188   -0.58589569488919
H          -7.68479557139340    2.43120073433563   -0.51536302508452
H          -6.32368696489171    0.03485934446932    0.43634051191429
H          -7.31274326811882    0.16244769092372   -0.86273932346825
H          -7.92379545540149    4.50142207776501   -0.56995118308777
H          -7.26207775501630    6.55920168717408   -1.88683596883601
H          -6.68573020690224    8.67911016822722   -0.63373521609428
H          -4.95670116271025    8.20496393825824    1.04711367900495
H          -3.32578686331869    7.17652075208702    2.82363202343098
H          -2.14138039555280    5.78944496882540    4.43860830361894
H          -9.39346462634622    6.64553224403453    0.24049602811960
H          -8.93091408954040    8.38018221248197   -2.23960102671699
H         -13.61699896733770   10.56295218324153   -1.80774350174544
H         -11.55761788459846    5.99842875738236    0.47552124457163
H         -14.56366616271975    8.74413285287750    0.85034252950835
H         -15.06851440543865    7.86575607821661   -0.58934096797740
H         -15.36754324838381    6.32515970089499    1.47516162819237
H         -11.44802630843949    1.47572260392995    2.14405786476238
H         -16.15663763887171    1.48362450471518    3.78310520454125
H         -15.92542130917612   -0.82581270015136    4.45377126685503
H         -14.57288274370882   -2.87435700717066    4.64714541614034
H         -12.24163852172171   -2.90441522206530    3.85277607211074
H         -11.24416745710722   -0.88395479096191    2.85519380203702
