132
 SCF done       -222.597223471869          0.000854536595
C           3.83584005996002    6.31091886370935   -5.44387877468320
C           2.92637399341423    6.43041183778378   -4.42583102968273
C           3.25416847811704    6.85832186621366   -3.12501133579964
N           3.47303603533369    7.21312024895684   -2.05540633837694
C           1.58369875920665    6.02656626091196   -4.56026971078377
N           0.50524176793928    5.63970827564900   -4.63390934373000
C           5.28296242726954    6.40583410002253   -5.30976337731591
C           5.88193198524809    5.71103870165980   -6.40169572179872
C           7.23724288929653    5.60200719110337   -6.52016079357290
C           8.06556013840755    6.20134955929343   -5.54377282334870
C           7.47116110754206    6.90697937354732   -4.45782561911432
C           6.06411013220521    6.99700366672702   -4.35471428387918
C           8.30982078973348    7.50469816722187   -3.49540841415724
C           9.67091001616068    7.41031391432059   -3.59712366792098
C          10.25561629895544    6.71531598390921   -4.66614211146262
C           9.47024241232419    6.12323407376606   -5.61769773655203
C           4.82441425516228    5.20202453992848   -7.29742129214342
O           4.94882258271155    4.51909289999549   -8.28853556044341
C           3.55878380930722    5.77117369165290   -6.75860015428387
C           2.44087292033372    5.82324363761068   -7.52874379923323
C           1.33293004956787    6.70099733681004   -7.40292033749910
S           1.48985505048512    8.27633332904221   -6.65615892551724
C          -0.11439602983419    8.67559858061215   -7.08435893147097
C          -0.75880598396237    7.66417964031906   -7.73786723927154
C           0.06701078142617    6.53572271511982   -7.93428487400264
C          -0.41160355532725    5.30444663054709   -8.62980972284967
C          -1.93848482558114    5.27093446262734   -8.67690056078750
C          -2.48963182307313    6.59863549721402   -9.18705792501025
C          -2.18609018607598    7.71407035198854   -8.18007531325302
C          -3.15250983663257    7.59889999499356   -6.99191270372779
O          -4.34461114065921    7.52364252236651   -7.12911370250398
O          -2.49328914799968    7.59732439491444   -5.83967121339031
C          -3.12911479264373    7.58244811578518   -4.59841888156999
C          -4.28620031359248    8.25205959169129   -4.34702658719629
C          -4.80600077465509    8.23751050154692   -3.02755425394134
C          -5.93176024363000    8.82605707190423   -2.47948325187610
C          -6.97873508581738    9.65143757837615   -3.14959739630393
C          -6.41901831682756   11.01294728888563   -3.59765442825143
N          -6.12494647426283   11.83511960153777   -2.43332687478213
C          -7.62729003702965    8.91818231224470   -4.33679528571966
N          -8.80515246448275    9.64995510248590   -4.77893824539403
C          -5.91583336791798    8.51722472865401   -1.06823164159513
C          -6.73059402524813    8.89369410667113   -0.06678925853088
C          -6.49078272591618    8.47295768932589    1.34170898626102
C          -5.29870005733180    7.59004185092922    1.53305062919122
C          -4.48692999333196    7.22835606462687    0.52135782623703
C          -4.73970168522307    7.68145070436118   -0.79381645830231
C          -4.07023975802607    7.52042001624349   -1.99237371631460
C          -2.87535268658297    6.83836801248769   -2.31622431601613
C          -2.41484045778360    6.86763708463168   -3.59316557470990
C          -7.72819631880584    7.78784397252424    1.86593652351675
C          -8.48002479063610    8.26454417354309    2.85809800041448
C          -9.65703095564840    7.62821057505385    3.37828900556179
S         -10.24019987370806    6.11790779880700    2.72737769438151
C         -11.53498902657263    6.08718798842447    3.84842538708811
C         -11.52736096349334    7.17104942447720    4.67440978131235
C         -10.45887931912399    8.06383763315452    4.40709014576924
C         -10.24157230372627    9.30585823675931    5.21328472130595
C         -11.52077038978323    9.71186267985261    5.94040104474543
C         -12.10291696140375    8.52804737176057    6.70644781705665
C         -12.55473228379438    7.42315704022754    5.75012683772653
C         -13.83970291822448    7.78343813739192    5.04025167047397
O         -14.34902532792820    8.86088104617657    4.93910904108990
O         -14.36143687783237    6.65760025560879    4.46648988575652
C         -15.49133292944110    6.73970755661462    3.74645460110888
C         -15.95002883417460    5.65637872817697    3.08430891814980
C         -17.15528508965561    5.53515695126354    2.27807063867189
C         -18.10788319384967    6.49760089022053    2.07561641441833
C         -19.26068035577042    6.31590114716712    1.28267623204109
N         -20.21769082863496    6.23248129517613    0.65403122293237
C         -18.08338712948460    7.79481994338564    2.62966828918130
N         -18.13529820004633    8.86296499361726    3.04628060861862
C         -17.17760601760849    4.18418253906420    1.73365352725972
C         -16.03120729159251    3.47551231673745    2.19733636931844
C         -15.22342173468308    4.35298139275027    3.05744871593835
O         -14.18308176799680    4.08339826868678    3.61439378928165
C         -15.79258557111087    2.17774059707580    1.84652317072182
C         -16.70677304893200    1.51267232988652    0.99971985878118
C         -17.85534118598006    2.21324209739720    0.52976672872628
C         -18.07566124098402    3.55657944865229    0.90851853087373
C         -18.76140775567758    1.54032130942163   -0.31559060992093
C         -18.54547012794758    0.23895045953904   -0.67880672013948
C         -17.41452916042070   -0.44959630892192   -0.21492885301678
C         -16.51458695370101    0.17387622719611    0.60640992923365
H           7.67516037295178    5.06560370909050   -7.34884928035003
H           5.63497620346651    7.54342427790764   -3.52902284262983
H           7.85407336830363    8.03603470356214   -2.67279947324740
H          10.30475106589927    7.87048166019961   -2.85392445416758
H          11.33146983606487    6.65159457829629   -4.73201750109520
H           9.91554837939909    5.58673959609920   -6.44280508459257
H           2.44363215672784    5.18577301683352   -8.40791024153911
H          -0.50323232651545    9.63940229454720   -6.81993031117211
H          -0.03098427690593    4.41612015264926   -8.12312747775166
H          -0.01194656861905    5.29986671056517   -9.65045898183671
H          -2.32891764808654    5.08038600250202   -7.67531360007500
H          -2.26440991640110    4.45710621679033   -9.32609555178806
H          -3.57061542410066    6.53620092966230   -9.31943507493345
H          -2.03568246248236    6.84166033547563  -10.15002951511984
H          -2.40519252162497    8.68765190864598   -8.63554700606386
H          -4.79170335113581    8.79284726034918   -5.12899192816019
H          -7.77441661009608    9.85319705473990   -2.42333527841172
H          -7.15218679268172   11.46644855729081   -4.28262471203716
H          -5.48283695069471   10.86276337259205   -4.13868646163677
H          -6.98681779213698   12.08959046264065   -1.96130909324846
H          -5.66538534426533   12.69334444087157   -2.71635297743824
H          -7.84741027644336    7.88251133189720   -4.02875524705766
H          -6.93530857455762    8.87494450994395   -5.17829552353795
H          -9.52945060420846    9.61244855655299   -4.06835935499056
H          -9.18051006080274    9.23321911118613   -5.62345572470026
H          -7.59767519950477    9.51820238493288   -0.23266979587914
H          -6.34440194936603    9.38718639072236    1.93731964005564
H          -5.12362948457513    7.25198066830259    2.54323483189823
H          -3.62957092142945    6.59623099679406    0.70270547361455
H          -2.33604659468188    6.30596900770862   -1.54742063030423
H          -1.50333182347852    6.37042436317299   -3.88614525404987
H          -7.98081747335312    6.85441922853227    1.38300864781501
H          -8.21083950872744    9.19694499422413    3.33815767975777
H         -12.23305814643282    5.27258572955952    3.83422546644372
H          -9.90652935682502   10.12183339491754    4.56982626549756
H          -9.44911554580665    9.11675968976842    5.94610640209117
H         -12.25901543491070   10.06976698071403    5.22258720147468
H         -11.30250270966822   10.52602899124059    6.63319411396692
H         -12.95643168027756    8.85656138462459    7.30134880554724
H         -11.34728715224884    8.12243983910199    7.38254443910731
H         -12.73933851941840    6.48733938410955    6.28785208076773
H         -15.98086033342914    7.70887347316065    3.74033213788174
H         -14.91572259445040    1.66442577577320    2.21249194705238
H         -18.95343698246390    4.05839891470120    0.53401584872421
H         -19.63061099859077    2.07449049266193   -0.67015506207529
H         -19.24542873388640   -0.26759970627260   -1.32624692057903
H         -17.26002575531070   -1.47620450139448   -0.51153539753426
H         -15.64201120450092   -0.35096687808561    0.96686792440546
