120
 SCF done       -191.801589747336          0.000376432818
C          -0.78372070586621    2.86871315620272    7.42770348949019
C          -0.63065362825051    1.63675133706015    6.83292974099476
C          -0.44456909327624    0.43381333777379    7.54279208242259
N          -0.29606619449278   -0.58737084716725    8.04825107636189
C          -0.61273995196243    1.37618336812696    5.44946833106827
N          -0.57781550343727    1.07696039433867    4.33845381777167
C          -0.72798606132984    3.10384482275322    8.86708032251981
C          -0.82402398872174    4.50422320080600    9.09353346944208
C          -0.80153454990240    5.03772086440115   10.34831873708354
C          -0.68134493239796    4.17485895058310   11.46156670714906
C          -0.58632041381571    2.77087277704117   11.24475421674086
C          -0.61096385659273    2.24886979731027    9.93026081228276
C          -0.46933200081228    1.91836784874974   12.36116979930431
C          -0.44791340188186    2.42629327393688   13.63165791743829
C          -0.54282049855098    3.80934843874315   13.84390018651829
C          -0.65620691660322    4.66490177371342   12.78157191429115
C          -0.95256101037240    5.20549426684343    7.80009739541572
O          -1.04814261708819    6.40912958820372    7.66223642255841
C          -0.96937726248427    4.14681832528084    6.77073399679806
C          -1.21476504358480    4.25928981750400    5.42154678754477
C          -1.34004908521327    5.37137867666632    4.57970858287100
N          -1.68677131242987    5.22298037961745    3.24238293026616
C          -1.95851323805233    3.96563189483468    2.58644169461034
C          -3.33781431033520    3.40863244402990    2.93806182118658
C          -1.65589794909389    6.43515148552157    2.64029561304893
C          -1.27692977039989    7.38878759194212    3.59314897874816
C          -1.09791580265520    6.73893146238477    4.79492024970251
C          -1.95339163659165    6.71336873061525    1.24595229646631
C          -3.02349234665851    6.16567125617143    0.58705624965867
C          -3.27930174306709    6.51020273165799   -0.75917307707800
C          -4.27792190811046    6.10082207517685   -1.62802606703430
C          -5.39062261684233    5.15805638857946   -1.30029478427612
C          -6.71070063951323    5.93576474817591   -1.14160708680906
N          -7.69648378237834    5.11794586208524   -0.45374637855870
C          -5.49525886747242    3.96773182426970   -2.28251169521999
N          -6.29169262761503    4.25103033659937   -3.47078689718366
C          -4.05896556636853    6.80425209466825   -2.86829445232589
C          -4.73100364401060    6.77904435128114   -4.03448338188139
C          -4.33804180641021    7.65203370553663   -5.17663957841465
C          -3.08125802410236    8.43765830337173   -4.96349802225602
C          -2.41325395792385    8.43781151257406   -3.79487376572550
C          -2.86783893687024    7.65171060656682   -2.70979121741946
C          -2.40064588086226    7.46186808892200   -1.42512470676456
C          -1.30904418051534    8.01361428403055   -0.71526099307577
C          -1.09940519004902    7.65179271777314    0.57492608540959
C          -5.46563595026995    8.62919491585939   -5.39673141382535
C          -6.18437500039546    8.70209150086030   -6.52132913005165
C          -7.23716560306120    9.65230132639189   -6.74563447328724
N          -8.02052507406095    9.67583063139221   -7.85480573832827
C          -7.92576919477280    8.74816403799961   -8.95791631089178
C          -6.99596788049695    9.27048326752417  -10.05182818144439
C          -8.89756892071878   10.74699240664574   -7.77120296036207
C          -8.65360352144430   11.38502155631877   -6.54229151481103
C          -7.63187838945414   10.70990139291025   -5.91358013732374
C          -9.81212314137558   11.01794934708567   -8.79913208139315
C         -10.75335900074816   12.00478439274577   -8.97037829476179
C         -11.64016431892405   12.04297267289212  -10.11889538675976
C         -11.81447615102208   11.06865623748932  -11.07472050652223
C         -12.71063783940045   11.17441043014627  -12.15785938077954
N         -13.41197103443695   11.18527207271758  -13.06759632504353
C         -11.16763675400676    9.81901277168401  -11.12026925739235
N         -10.69357027954685    8.77521752192606  -11.22451174262575
C         -12.39167525137372   13.29229212654747  -10.06852166164116
C         -12.02838701059540   13.98344766406018   -8.88021739255402
C         -11.01747460253877   13.20106617681599   -8.14285589877598
O         -10.52134584490058   13.52199292499148   -7.08118240147578
C         -12.57449785614673   15.18826887032051   -8.54773752597976
C         -13.52833865165342   15.77358567439856   -9.41098846449021
C         -13.89326663871173   15.09214106466518  -10.60701469524901
C         -13.31078690732617   13.84247017314921  -10.92198062761457
C         -14.84221571327150   15.68585302686520  -11.46374024321662
C         -15.40555982194725   16.89407402815194  -11.15501914091231
C         -15.04576266750856   17.56389984282858   -9.97642996894163
C         -14.12718433547924   17.01523071870582   -9.12290556720659
H          -0.87588559673127    6.10568703751461   10.49122756824743
H          -0.54157101890155    1.18047514299113    9.80236424115354
H          -0.39638307767386    0.85380990821522   12.19232763820194
H          -0.35804864158654    1.76454356880094   14.48035207812052
H          -0.52510797073407    4.19376470718277   14.85306710634462
H          -0.72907361971762    5.73133130986236   12.93883194471696
H          -1.32833140020465    3.31144251674757    4.91573747664506
H          -1.19057486005720    3.23604581291635    2.86293347475109
H          -1.88721119757950    4.13148759816467    1.50874491169662
H          -3.49862394409107    2.47802924669083    2.40111938149095
H          -4.12514587851455    4.10941077648736    2.66974335018592
H          -3.41778033607133    3.20905069999650    4.00346277865587
H          -1.18354794705746    8.44111880539137    3.41086262737219
H          -0.82445170203624    7.17367551648923    5.73361859070683
H          -3.71191308753367    5.51195940107772    1.09849499481433
H          -5.17514149667262    4.72235553856556   -0.32005336364409
H          -7.03795216722165    6.30554556162632   -2.12532933836886
H          -6.51415539343497    6.80608887680667   -0.50867042091676
H          -7.98776196127517    4.33700898422165   -1.03136913527845
H          -8.52135692564474    5.66420630535417   -0.23394215351862
H          -5.88454031695356    3.10158895476425   -1.72475033219919
H          -4.48475330033496    3.71799292059447   -2.61680426652842
H          -7.27967259925883    4.27183723283218   -3.24035788415166
H          -6.15680473159285    3.51500740474679   -4.15505323525410
H          -5.58624359194733    6.13162973302935   -4.17253036068582
H          -4.23707997175543    7.03272886426063   -6.07781586956313
H          -2.75476520906603    9.03898099571650   -5.79846923242341
H          -1.51644606084929    9.02876913737262   -3.67426271522475
H          -0.65435313789000    8.71845103218129   -1.20645812725837
H          -0.26429501259529    8.05419067185153    1.12793807350446
H          -5.65286764328967    9.29397410765354   -4.56749550164876
H          -5.95591979364272    8.01537726089921   -7.32538012352655
H          -8.91943283854141    8.56234788589219   -9.37220182068351
H          -7.55866730786851    7.79253985905598   -8.57856135184046
H          -7.35387920548461   10.22384584919984  -10.43302824717512
H          -6.96197394756493    8.56155595999738  -10.87413005862940
H          -5.98926541744648    9.41272657507268   -9.66435290871657
H          -9.17760796612234   12.24787003664888   -6.18698249294374
H          -7.20221483240997   10.94995270301196   -4.96218523427055
H          -9.76014550249508   10.32137780278556   -9.62294199015454
H         -12.28195956135621   15.68972405599807   -7.63704334625506
H         -13.60724255989708   13.35581585138661  -11.83731860943914
H         -15.11677304207973   15.16547511448399  -12.36973747934064
H         -16.13200577029797   17.34032276215006  -11.81770483253599
H         -15.49971593685532   18.51674796425794   -9.74801476176051
H         -13.84601070975387   17.52650512774034   -8.21365423875787
