112
 SCF done       -197.070742115004          0.000526056076
C          -5.97324095064318    3.49618951191140   -7.01968277917803
C          -6.78867865996797    3.48577265983600   -5.91699015374439
C          -7.44357089689069    2.33616651614322   -5.43685600582513
N          -7.98009208177749    1.42273219854001   -4.99287026168585
C          -7.15247590110934    4.65221271461498   -5.21388623391048
N          -7.53375606414784    5.58686068032331   -4.66664412176014
C          -5.83761346433338    2.40686928462371   -7.98274740859218
C          -5.33298958832299    2.94595579121695   -9.20254277462062
C          -5.14244583128427    2.16635178272081  -10.30597097686672
C          -5.44130233514272    0.78639729691536  -10.23566080114309
C          -5.93132864223741    0.23921782498285   -9.01529094424017
C          -6.12757903985932    1.07326264904907   -7.88958628867709
C          -6.21913673709263   -1.13924958539198   -8.95732383553291
C          -6.03546044436376   -1.94033260478647  -10.05141548169198
C          -5.55381843454196   -1.40046867794496  -11.25295156521927
C          -5.26345322120770   -0.06613168293136  -11.34282347452186
C          -5.06488697138880    4.38616860331792   -9.02437238244333
O          -4.67048182815551    5.17892007855755   -9.85170384019720
C          -5.31833503111816    4.65222008953403   -7.58505261021941
C          -4.81940580231778    5.78812025516606   -7.01495350425986
C          -4.55542856266680    6.05859098277452   -5.65947532605431
O          -4.63032112496082    5.06961946236890   -4.70578928066609
C          -4.26978604975192    5.64238883440471   -3.55387360608861
C          -4.07933951586589    5.36856125659978   -2.19798881475444
C          -3.65908443298557    6.57440244540701   -1.64632531962773
O          -3.58139882499018    7.56110974613070   -2.59258951787552
C          -3.95251864373382    6.99757571572797   -3.75062951236579
C          -4.12296025142931    7.26704063463390   -5.10278028912306
C          -3.29460262447446    6.90797313311669   -0.29551392485664
C          -2.87060711188117    8.18476609144928   -0.00286019433864
C          -2.48369507800026    8.51352031802159    1.31062745245759
C          -2.01020801031707    9.69690544537459    1.85474058868295
C          -1.74132472256826   11.01175272295191    1.19724171832465
C          -0.47450800611880   10.92169259449895    0.32624551665553
N           0.67121303024758   10.61557490356815    1.16531893617266
C          -2.94623746484930   11.57229187668533    0.40551592537482
N          -3.03831614046060   11.05400006194862   -0.94823344996896
C          -1.73599186815523    9.42879194461053    3.24760213983251
C          -1.20976707192300   10.20212063281626    4.21239371018401
C          -0.97290072509426    9.68729730232974    5.59507149540366
C          -1.41568552079773    8.27578879388615    5.81466928099782
C          -1.93327749042371    7.51153046849831    4.83566166869301
C          -2.09597470888321    8.03053363802572    3.52823132429951
C          -2.54476707844256    7.48508651302430    2.34537330069772
C          -3.00345503850142    6.18727285761190    2.01066961486639
C          -3.36218964139545    5.90867276758801    0.73394947673493
C          -1.64666520521513   10.63083386884015    6.55621756910253
C          -1.01624648900493   11.65262814786883    7.14181898367140
C          -1.62091449225595   12.61580701185246    8.01403704467002
O          -0.84000034247426   13.67416952216795    8.38802417023519
C          -1.61110249760444   14.44459966563349    9.17077861651728
C          -1.60382171845404   15.63208600343622    9.89520432146360
C          -2.88479420124061   15.72164187339865   10.44573074098393
O          -3.65763058137702   14.63128387525109   10.08882441333305
C          -2.88721454216528   13.87155989977283    9.31222534501416
C          -2.89379969803896   12.69133713844690    8.56023191775828
C          -3.52449717865962   16.64740556715929   11.29411237890618
C          -3.14533164364735   17.89810032603744   11.69477210528420
C          -3.92541591192761   18.73061863457779   12.59634366195097
C          -4.91788744918394   18.31420076291732   13.44529444613776
C          -5.62168401896258   19.17444999494394   14.31392720113077
N          -6.23472102582905   19.82198654609417   15.03739679114633
C          -5.34512683921300   16.98067921117530   13.61832756257892
N          -5.73543014642698   15.92337614521421   13.83962073827050
C          -3.40934267148815   20.09140481695444   12.50849321088133
C          -2.25982173276887   20.08043253368501   11.66981592388245
C          -2.01498563336137   18.71131267179380   11.18311237794870
O          -1.08186038122661   18.36100536802447   10.49034748977308
C          -1.55258969043124   21.21552063359625   11.39756482719052
C          -1.97646453112978   22.44144676793475   11.95752199627576
C          -3.12997053550543   22.46275006424132   12.79335074845801
C          -3.83868938724308   21.26868670839990   13.06138854599705
C          -3.54726573036561   23.69242995701609   13.34197635104722
C          -2.86006161365935   24.84610456891645   13.07871124101599
C          -1.72470970196920   24.82382471754753   12.25514128518368
C          -1.29190521677109   23.64680510888639   11.70718875614249
H          -4.76749763578519    2.59558346759139  -11.22331119272309
H          -6.49391444390592    0.63306507561532   -6.97509737383697
H          -6.59273727733733   -1.54987825444890   -8.03065416446546
H          -6.26106365713306   -2.99496222243312   -9.99698318474760
H          -5.41390638035074   -2.04669403098863  -12.10676382842631
H          -4.89216866768025    0.35560463248747  -12.26558377942275
H          -4.48901569260191    6.55320539513720   -7.70807706149292
H          -4.22834779144019    4.44148668480382   -1.68705448915987
H          -3.98158245709990    8.18435625225656   -5.63507748402710
H          -2.84405937290782    8.94667827207799   -0.76641783985024
H          -1.53535914483798   11.73533314969863    1.99410507385517
H          -0.35834854421506   11.86846911534407   -0.23169378549545
H          -0.59112474274319   10.10716724943596   -0.38996192406066
H           0.88995328278891   11.40128951859217    1.76903247649985
H           1.48756669427328   10.42390254914975    0.59657697513024
H          -2.87543763862972   12.67356664665518    0.42287743909692
H          -3.86046493252579   11.29045562552062    0.93386439277161
H          -2.32893606702696   11.46625700338765   -1.54312689845095
H          -3.94452723917679   11.26817737245330   -1.34701603911105
H          -0.92947931366688   11.23220638100346    4.04182549162294
H           0.11180459153886    9.74401217924968    5.77500280935980
H          -1.28778045047720    7.89530532070885    6.81670967569737
H          -2.22605260270093    6.49044244079547    5.03318840498287
H          -3.05794475951264    5.42976778080190    2.77876963713724
H          -3.70866493908642    4.92240530925202    0.47062316084242
H          -2.70129184468741   10.46264510103123    6.71277546764276
H           0.03666915203607   11.82400247759264    6.95859559612832
H          -0.82015333284702   16.34902036134722   10.02006215677482
H          -3.68826623028820   11.98816880542229    8.42895810422247
H          -4.48912716394546   16.28681062916595   11.63245436877273
H          -0.68213066314861   21.17892780910349   10.75935743832516
H          -4.71171431788342   21.31968930052494   13.69233992373744
H          -4.42141992373836   23.70457113461799   13.97635135603716
H          -3.18783560350545   25.78289132893754   13.50392507204251
H          -1.19494023720575   25.74363729951674   12.05691319606194
H          -0.41824524506932   23.62306821201036   11.07218259356912
