128
 SCF done       -221.524216023725          0.000503913220
C          -2.00373096586017    6.55084209455814   -7.99762113574503
C          -1.26527721487812    7.45744667612682   -7.28495231555222
C           0.10457662204144    7.70686605984843   -7.50005403482878
N           1.21943780317176    7.94953871560364   -7.62692466477241
C          -1.82288533947037    8.29758897283223   -6.30332272540415
N          -2.26994635031734    9.00544194833566   -5.51710103136427
C          -1.54903123906095    5.83485745290908   -9.18395051371068
C          -2.68836214697839    5.34820169040348   -9.88917311939196
C          -2.56724195101070    4.66465294716117  -11.06472603991763
C          -1.27851110174464    4.42313839935020  -11.59175149978521
C          -0.13505272741501    4.89333491286821  -10.88362395968358
C          -0.29115674126451    5.60526704292899   -9.67180760557987
C           1.14476220186884    4.63904778196485  -11.41705831761753
C           1.29058562556628    3.95655332038292  -12.59399794469506
C           0.16409980600595    3.49495553355844  -13.29096625134313
C          -1.09278439019169    3.72336942101403  -12.80039363740510
C          -3.90670381028323    5.68839348529503   -9.13669950897355
O          -5.06049161702410    5.48491906936757   -9.44336009464087
C          -3.42505503536400    6.30665660709389   -7.86702023895375
C          -4.31763811943869    6.44507819403556   -6.85649642850195
N          -4.09316185252637    6.65015878763214   -5.53041555457509
C          -5.04129713680356    7.16121025118256   -4.64930435367637
C          -6.36180834555793    7.64985547038542   -5.09743816400995
C          -4.49789901423243    7.15364459705326   -3.40286842148828
C          -3.16897580944663    6.60527982565493   -3.46978409339593
C          -2.89810478599520    6.24208474597043   -4.82624302031082
O          -1.97816058057688    5.66716344109777   -5.36166732185799
C          -2.62233852950950    6.63195461730704   -2.21386130264466
C          -1.28339811240572    6.16357306932355   -1.79635976424633
N          -3.55352487103117    7.15077359262887   -1.34999314146489
C          -4.75941022657733    7.50110187645873   -2.01737119420828
O          -5.72797370961945    7.97183992993916   -1.47302769516219
C          -3.37331897679196    7.32590855683422    0.04118943347561
C          -2.29046193897744    8.00195867705729    0.52101843063011
C          -2.11080103674852    8.11402120202186    1.92123318079152
C          -1.10196950431379    8.70008612971505    2.66513473438411
C           0.08252232355552    9.42171811709856    2.11426935809538
C          -0.05814253877154   10.95561297975136    2.22810449328214
N          -0.20509564229500   11.37759876234329    3.61144523086798
C           1.41745247825271    8.97862042944540    2.73512438139743
N           2.50133306906608    9.29831074584148    1.81948256522958
C          -1.43321771389703    8.47784689478260    4.05517191548584
C          -0.79770579887221    8.81714875625615    5.19215193232577
C          -1.33606808235868    8.44959851783103    6.53292412217501
C          -2.64942245962325    7.73290055776559    6.50532417362023
C          -3.27303763892722    7.40173343265923    5.35985640673499
C          -2.70148489083618    7.73551244112100    4.10928785222579
C          -3.10527940768756    7.52085649892317    2.80626208348381
C          -4.23184031592482    6.86598057054809    2.25820017899656
C          -4.35864260539247    6.76711951115743    0.90997606438776
C          -1.43298007843386    9.69791102289452    7.37385284773138
C          -0.65568237431730    9.90284387315391    8.43141899396176
N          -0.66632625967802   11.02675298488806    9.25361297301620
C           0.07043677930159   11.12285394410601   10.41841130604955
C           0.94173487203810   10.04446318295193   10.93583443013459
C          -0.15429416985049   12.35131058439030   10.97035883515403
C          -1.06811922840805   13.07540089081006   10.12411993692295
C          -1.40357084019881   12.22239238190499    9.00420113790492
O          -2.12405974261126   12.40398007483808    8.05093199924516
C          -1.29800736615219   14.30328495774362   10.66912085796021
C          -2.15301299486624   15.40825822163836   10.18941174248327
N          -0.53138585009093   14.41169399584604   11.81579299341235
C           0.17543752234180   13.17581692570623   12.09869376875221
O           0.77035394400924   12.96974822100304   13.12447014424478
C          -0.53810186333002   15.47576819306138   12.67157344722678
C           0.56601204921842   15.86359703129153   13.35768379013561
C           0.63934939083699   16.78370938276860   14.47738743884842
C          -0.41536664761714   17.39386907870617   15.10491841840763
C          -0.28923481363742   18.25728169743503   16.21321013943431
N          -0.25721707141073   18.97434958953830   17.10910068815390
C          -1.76489041837769   17.25364119027229   14.72338313464845
N          -2.87852087787564   17.18132001554419   14.45112225079282
C           2.04270430933668   16.90694298948197   14.85088408518443
C           2.82937275122906   16.12484591289442   13.95680742208046
C           1.95323545804357   15.48055459797076   12.96534198424170
O           2.28821360522538   14.88533523643219   11.96552342121316
C           4.18794459975327   16.05475286505686   14.06460397979557
C           4.83526314002792   16.76605204464763   15.09979226708938
C           4.05609181630933   17.54887575565232   15.99997979646364
C           2.65140000638423   17.61056411624222   15.85748643249875
C           4.71260288762679   18.25656501788231   17.02780507560198
C           6.07288678709846   18.19532981049521   17.16142036488653
C           6.83909984976056   17.42466124389257   16.27417236705498
C           6.23340507517272   16.72467619937399   15.26607154988173
H          -3.44380903150287    4.31001461606940  -11.58649068210286
H           0.59083471739725    5.94188524820714   -9.14982181710909
H           2.00903911386193    4.99840921338600  -10.87797461339730
H           2.27542384058664    3.76875612657910  -12.99506645897278
H           0.29722089060394    2.95738302068788  -14.21798463182720
H          -1.96408104778429    3.36989053582252  -13.33236572985401
H          -5.35858044580278    6.29583780685857   -7.13026896704776
H          -6.24476247856845    8.40931086005997   -5.87040469785795
H          -6.88562917707351    8.07764980929649   -4.24710731786933
H          -6.96095536159467    6.83674582537149   -5.50950355380058
H          -0.95646609212209    5.37624516821784   -2.47177045731578
H          -1.29491738513114    5.80386897187563   -0.76910819226551
H          -0.56205924129856    6.97806371080153   -1.86809841528418
H          -1.58118953948741    8.45376652468155   -0.15567433211184
H           0.13792173219078    9.20002397287568    1.04284066803830
H          -0.89603049145547   11.27614437592277    1.58810727154399
H           0.86477637483139   11.38922925480879    1.83678599148792
H          -1.14346300126925   11.17674652768261    3.94134095259036
H          -0.06128370118755   12.37775178426856    3.68909907103829
H           1.36266169358542    7.90589397202775    2.98977798694293
H           1.59047008853836    9.54637080575567    3.64978273910171
H           2.43915985581108    8.72946823962699    0.98118376658677
H           3.39919832404115    9.11430371321189    2.25243798300694
H           0.11344649090716    9.39461673245161    5.18459006781461
H          -0.59355658069210    7.78642654502617    7.00542295172543
H          -3.07600310122558    7.49361313232258    7.46759436748176
H          -4.21866136266563    6.87925216242454    5.37932366275263
H          -4.97561673373107    6.44153169819844    2.91564210798715
H          -5.20415898668535    6.26719963267372    0.46484581459013
H          -2.16387999870648   10.42333848740559    7.05844962428431
H           0.07290905657081    9.16084827927597    8.73054537706291
H           1.75007890012323    9.82915235881735   10.23641798790525
H           0.37477130875514    9.12797721160907   11.10001792073159
H           1.37242657412812   10.37065561894263   11.87858102888906
H          -2.59529019511811   15.13077855910674    9.23678052197980
H          -1.56882300141958   16.32058902446355   10.06867599605503
H          -2.95051164011894   15.61463559142754   10.90489573662745
H          -1.49072257450368   15.97673465359354   12.79241577237817
H           4.76159106824160   15.45696825515146   13.37210317279981
H           2.09033245113773   18.21650563777343   16.55115217705624
H           4.11822181067810   18.84807847940601   17.70863220208513
H           6.56646098275430   18.74056240852543   17.95190263698222
H           7.91166991187563   17.38864825611831   16.39344126332202
H           6.81831208137782   16.12958064890327   14.58007158278689
