144
 SCF done       -256.666972152107          0.000757096835
C         -10.66175289413596   10.21891572237361   -3.80380501667317
C         -10.49973456601827   10.92278387154235   -2.63625802141111
C         -11.42376831229115   10.90571778092292   -1.57491567530112
N         -12.13905699237994   10.90729576754081   -0.67647436733078
C          -9.43458163704084   11.82153947409745   -2.43222048983026
N          -8.60942564547158   12.60499948822409   -2.27307189268302
C         -11.88134155891666    9.53884846557989   -4.22302253774844
C         -11.85292379805678    9.40060132764524   -5.64214051802368
C         -12.89155080310620    8.83948749211388   -6.32625530947782
C         -14.01877715210538    8.37504501116567   -5.61014901409610
C         -14.04518827527640    8.49701465897916   -4.19104488408467
C         -12.95737839806397    9.08899023592896   -3.50816867336706
C         -15.17377560466478    8.02670110932916   -3.48999266668134
C         -16.22927013918098    7.46631077783258   -4.15649753306010
C         -16.20317898453817    7.34766187726864   -5.55379061797095
C         -15.12149266274597    7.79217317469726   -6.26470722582349
C         -10.57811869090337    9.93690262771088   -6.15929640003317
O         -10.22581104831316   10.04337497007046   -7.31312639316252
C          -9.78406252677169   10.27599085418844   -4.95039451594304
C          -8.44338601559060   10.50278204204955   -5.03712954863865
C          -7.48344605074940   10.41285142407933   -4.00434854321339
S          -7.68963889581726    9.34377212071992   -2.64149715784337
C          -6.14373325088543    9.79340257725005   -1.98867316611051
C          -5.52407517307898   10.74463899464996   -2.78901910575978
C          -6.25974486112339   11.06511951527020   -3.93478586891809
C          -5.81628435102448   12.08255814451087   -4.93438318959799
C          -4.31832300504430   12.35861454305593   -4.80208713568288
C          -3.52399573385744   11.20641472540792   -5.34882523968514
O          -3.95266190069715   10.16556422367455   -5.75124880987985
C          -1.97841193198875   11.44662489947923   -5.37308185046915
F          -1.65926982911794   12.74052872952027   -5.53217867299519
F          -1.40989301925074   11.04976217524919   -4.22228615087414
F          -1.39265030374436   10.77163090910974   -6.35932478135388
C          -3.96262959485479   12.61325573212560   -3.32668870553171
C          -4.19199570750316   11.35854573507011   -2.48618937487001
C          -5.64147302973871    9.21252503314281   -0.79515097309902
C          -6.26790925456244    8.23007934129265   -0.10951498127081
C          -5.79759456638100    7.59337580564625    1.09020120430786
C          -4.78091366919148    8.10947935927108    1.86300988075243
C          -4.35012089807107    7.42539991467759    3.01513351790140
C          -3.35874721462074    7.73413126555093    3.93706493734066
C          -2.47647050405131    8.93316307991436    3.87963174302012
C          -2.23681167926354    9.60497864043190    5.24297741655335
N          -2.10714051885314   11.03806528977076    5.04723793376986
C          -1.13900283924624    8.59645692218321    3.15228561311990
N          -0.32978539678567    7.54992011522664    3.72731221078762
C          -3.32312897321736    6.64398579648859    4.88741357153925
C          -2.54803134407264    6.40589344533802    5.96157844808410
C          -2.68527619258278    5.17090478491024    6.78000744908110
C          -3.74754929897730    4.22104341501293    6.30763638016836
C          -4.53615283483823    4.48590224075883    5.25163289684560
C          -4.36033984912912    5.67210136637252    4.50067507968065
C          -4.98028831150261    6.16111451651503    3.37177895428411
C          -6.04146822569354    5.66622653145454    2.57582574474901
C          -6.43401516923230    6.36556854814079    1.48440633622915
C          -3.00128349911365    5.47439984206858    8.22376966585380
C          -3.62505241474338    6.58222967966404    8.63026172321168
C          -4.04580098368736    6.85285409871483    9.97774788144640
S          -4.14323511117537    8.49197496714423   10.51631988908269
C          -4.71509907493140    8.00670274479896   12.09469326146454
C          -4.83374375716531    6.62077830296259   12.16650180905066
C          -4.45424174448689    5.98227744591824   10.97186991390194
C          -4.59215067639370    4.50218598670735   10.79566616029005
C          -5.73580928475248    3.99795871075423   11.68681144517089
C          -7.06627511111502    4.55790968124132   11.26357323063296
O          -7.88095777476205    5.07693176939707   11.96699125412916
C          -7.38681187235624    4.39643456206982    9.74144862108005
F          -6.89377311330503    3.25376607373045    9.23170824048556
F          -8.69813666218335    4.38949745112097    9.51924901692125
F          -6.86080774402953    5.39993816500217    9.02209852687016
C          -5.42012959420277    4.35710400961406   13.13882149171248
C          -5.36389002322883    5.87387134245864   13.34854757014915
C          -4.97000897351400    9.03772862670533   13.02863842395868
C          -5.37898660348045    8.90348160667530   14.32058662141183
C          -5.59448481120025   10.02109443069930   15.15256758299237
C          -5.97459368796313    9.93220865935669   16.46572106791176
C          -6.23425755068855   11.03182270287937   17.37366366250921
C          -6.06846158555695   12.37040819681203   17.12099299286149
C          -6.33428723637269   13.39080581866147   18.05730295173350
N          -6.53466349928189   14.27076539999053   18.76758357857723
C          -5.59650825475056   12.92820141137193   15.91542647443131
N          -5.20785273711562   13.46190666032273   14.97503469165841
C          -6.69125339045348   10.46602155699874   18.63977837130196
C          -6.67418063934828    9.04643798155547   18.53466153143778
C          -6.21435123503355    8.66026060685939   17.19018784832552
O          -6.06414954528727    7.52417621043690   16.78187682053149
C          -7.04757287689300    8.23936291164717   19.56974003708096
C          -7.47004737894167    8.82634219551579   20.78326765608495
C          -7.49557367150119   10.24599246694327   20.89632110447215
C          -7.09857785861462   11.05584198408335   19.80695257230431
C          -7.92321319063915   10.82186870755608   22.10985398529393
C          -8.30709141600729   10.03515020176673   23.16161091466304
C          -8.28033141917842    8.63717343180239   23.04919506822749
C          -7.87031098057149    8.04570137298894   21.88520971410906
H         -12.85738270270351    8.75180077699210   -7.40208914266102
H         -12.99667404450745    9.16476187173080   -2.43248646949917
H         -15.19012018766864    8.12350587179092   -2.41426139565808
H         -17.09081960664809    7.11214342498336   -3.61033849827110
H         -17.04426901003835    6.90260744719352   -6.06424464744126
H         -15.09610494997688    7.70332070681416   -7.34105409308648
H          -8.06343650334373   10.69773582647965   -6.03552986732537
H          -6.37086773578182   13.00962524316444   -4.76553498270578
H          -6.04566724260761   11.73637402736195   -5.94477437933634
H          -4.04850066771443   13.24659542101524   -5.38563917927953
H          -4.61086014682920   13.41366334055903   -2.96671665776863
H          -2.92861949911199   12.94465190557115   -3.22650337778076
H          -4.13656081097857   11.62316724874844   -1.42830093109542
H          -3.40401480218127   10.62309956375189   -2.68116119915609
H          -4.68457263142330    9.58644433577207   -0.46063009979924
H          -7.20106595654507    7.85161125184245   -0.51077918723354
H          -4.31681514093730    9.04808753765054    1.60130985326202
H          -2.97883948867879    9.68743118690902    3.26593332624406
H          -1.35827785627283    9.16282070419546    5.74528081788064
H          -3.10750551157058    9.44128451748302    5.88397594582793
H          -1.26702772705588   11.25303493997668    4.52085065866790
H          -2.04868416674130   11.51996157937543    5.93686456556211
H          -0.52785717912579    9.50226008679646    3.10794197357671
H          -1.37701093276106    8.29731536605253    2.12815515574249
H          -0.83771317002733    6.67266837035455    3.74621445604877
H          -0.05148622774831    7.77806074748810    4.67489201990890
H          -1.78788884017466    7.09775546698765    6.29462687410957
H          -1.71484369389826    4.64946192200261    6.75936850443493
H          -3.86372092207815    3.31492281991997    6.88245986393851
H          -5.30121082743460    3.78572161294087    4.94949881124305
H          -6.52544893952142    4.74018043130126    2.84894625476554
H          -7.24211214647095    6.00110854665970    0.86674316201949
H          -2.72832129160380    4.70021093607761    8.92427664058275
H          -3.83127559857842    7.36966249803670    7.91707015289283
H          -3.67395061304034    3.99542747098937   11.10686158358749
H          -4.75907125837405    4.26561713514344    9.74456661760925
H          -5.81579367758748    2.90870031285939   11.57485639062160
H          -4.45962406025753    3.90755356971715   13.39539319178278
H          -6.17633725016426    3.93874310807658   13.80295993426695
H          -4.75032683984264    6.08190601649791   14.22765345994251
H          -6.37044212212973    6.24479298362540   13.55953349313581
H          -4.80541859326223   10.04165928758235   12.65210505531757
H          -5.54755142046389    7.93688032719596   14.75823901490950
H          -5.45450887685083   10.99880794446849   14.70986584963509
H          -7.02317372392818    7.16490960010059   19.46272666116812
H          -7.13093643991162   12.12697419969859   19.92644100572547
H          -7.94167235349899   11.89875421050176   22.19204841625167
H          -8.63386269856421   10.48610261050998   24.08666570201769
H          -8.58652960975504    8.03138253332387   23.88902439097340
H          -7.84774822921142    6.96958659060783   21.79213661473119
