132
 SCF done       -214.806231375854          0.000552220340
C          -3.73096167757513   11.88457357505561    7.05894552083693
C          -3.20462561841161   12.91981496127369    6.31848163596908
C          -3.66970358107175   14.24526291444908    6.38229179179103
N          -4.03444371713148   15.33504816095062    6.36387284579907
C          -2.07851429211335   12.80450353161462    5.48578319424932
N          -1.12137485963685   12.79511898958309    4.84973728080968
C          -4.65948594735008   12.04318891297521    8.17876189582048
C          -4.64879003047977   10.84222353762262    8.94558717695270
C          -5.40214138688865   10.70383933863045   10.07374099515904
C          -6.22610067220551   11.77567662276641   10.48908343501660
C          -6.24882836290057   12.97500823922872    9.72223654689032
C          -5.44893350839765   13.09256337188173    8.56063866273354
C          -7.07657084667234   14.03452980538996   10.14362501672835
C          -7.84548819460126   13.91796308490956   11.26978519273156
C          -7.82323499657416   12.73611188187855   12.02401519499461
C          -7.03011152394215   11.68799090977061   11.64190163713940
C          -3.74738497627933    9.86622854940570    8.30166892688117
O          -3.46180685892609    8.75180940937450    8.68739416326960
C          -3.30531585638447   10.51120658353901    7.04397269567837
C          -2.65244057626513    9.75821104446875    6.09811557867791
C          -2.43900554992939   10.01144091950093    4.73738542248184
S          -0.97027294326090    9.36492585703131    4.05264426352312
C          -1.13765994270605   10.26882187633495    2.59675678184734
C          -2.35271160995159   10.98867397679292    2.59635747440512
C          -3.12913079137366   10.78769775604323    3.77830500027711
C          -4.46188017013104   11.26198839078412    3.81489420154554
C          -5.46911919752570   10.80561950312435    4.82553895155079
C          -4.87324987020019   12.09566410061937    2.79746881941896
C          -4.05042089614071   12.42066311024406    1.71417259670846
C          -2.82010947036361   11.83495850514558    1.58036461032348
C          -0.16851901768304   10.24124370555082    1.57373311578375
C           0.94373846435773    9.46196671838913    1.59164721872979
C           1.93154753014133    9.35672398073214    0.55986058508748
C           1.94196394334404   10.16389909520101   -0.55988683863043
C           2.90045200846344    9.97340489673094   -1.57143232824104
C           3.09583605003823   10.61386964365691   -2.78794654433514
C           2.37615619065031   11.78976633860520   -3.36019713106352
C           0.89323648260686   11.47833186398437   -3.63623957592639
N           0.40599878986310   12.35999138330453   -4.68060254810054
C           2.54648831105128   13.02284623664781   -2.45399103779268
N           2.05316842081512   14.22238611777552   -3.11537711633794
C           4.18223742075849    9.92821291541799   -3.44587491031566
C           4.70104293171715   10.07517739437838   -4.67820104329385
C           5.82805494312671    9.22319127843224   -5.16008912713938
C           6.30564789588067    8.20915745147365   -4.17232330092170
C           5.74788346509190    8.04707296057502   -2.95968178773924
C           4.67225651137396    8.87322506266849   -2.54873938152919
C           3.88412223801383    8.90361740923124   -1.42013273634490
C           3.87838652693604    8.11496884455198   -0.24364430973963
C           2.94058227394812    8.34100763306667    0.70584446771248
C           6.91205150967414   10.16269671904942   -5.63193748971722
C           8.04863541032516   10.38649570844042   -4.97507379879649
C           9.08895241744924   11.26277308278025   -5.46259880799313
S          10.67030491609885   10.59567821418623   -5.57061406921943
C          11.28766493703881   11.94726654581018   -6.47382077298976
C          10.29369563970893   12.93913650886474   -6.59719480993999
C           9.04343961856196   12.55496715253265   -6.00028164947705
C           7.98110696024951   13.49825760802818   -5.92472881128472
C           6.71751971893542   13.24194425605616   -5.16211482761183
C           8.16279047738322   14.71859862378371   -6.52487690521037
C           9.36467732531996   15.07268072339407   -7.15452332204858
C          10.42988154484279   14.21595230229620   -7.16935163983883
C          12.60682374734042   11.83759811578985   -6.94732607241699
C          13.22750352917153   12.59509776526377   -7.90146807871493
C          14.55771158421433   12.34514641406269   -8.27591727967422
C          15.24468506769270   13.04941732965023   -9.23407918185044
C          16.60383731635022   12.81632070785103   -9.66997423638720
C          17.46479792066920   11.84344084801092   -9.22289827532623
C          18.78213414706152   11.67440394936118   -9.69472721499200
N          19.86321093351837   11.47800865158599  -10.02961559806698
C          17.17631049455498   10.87420564274348   -8.24178368301852
N          17.02538491691066   10.04934939503952   -7.45562820821779
C          16.91824124068226   13.80545406953112  -10.69782613527560
C          15.77706656632596   14.63347562933168  -10.89439960133994
C          14.69690895029546   14.19796762124781   -9.99065100463006
O          13.59272243571709   14.70022204474786   -9.89543850022134
C          15.77097443988526   15.65214794078307  -11.80193859436827
C          16.93031846603141   15.89612786977208  -12.57242855275492
C          18.07701708272124   15.07360157962026  -12.38157421586558
C          18.05256332420548   14.02503525044422  -11.43261248466482
C          19.22885010178061   15.32528442322316  -13.15399391168518
C          19.24896019342385   16.34019535500201  -14.07164181306702
C          18.11879044836934   17.14940160238422  -14.25905361989879
C          16.98414370350503   16.93186270114741  -13.52532528940413
H          -5.37320270838319    9.78739636431087   10.64433049377177
H          -5.49061173359317   14.01090182903422    7.99573188991888
H          -7.08846817049799   14.94381062690566    9.56037623832265
H          -8.47490279961611   14.73678335793263   11.58530165296508
H          -8.43702383723774   12.65974667504144   12.90925156844136
H          -7.00859232157285   10.77501983596386   12.21916958662639
H          -2.22896506643133    8.83299021407588    6.48080693837801
H          -5.17444834945154    9.86389816626143    5.28071457581281
H          -6.43061307896735   10.66886884479493    4.33303448815502
H          -5.61347255655706   11.54044311262569    5.61703412408996
H          -5.87971668332878   12.48803659106089    2.82304517716217
H          -4.41881485472802   13.09301990941929    0.95451034000858
H          -2.21992610201060   12.01368723405180    0.70273574013570
H          -0.36779260836892   10.87859569139149    0.72509571049562
H           1.09222049205124    8.82356833557043    2.45499432860611
H           1.20449168492239   10.94151762544119   -0.67441697605601
H           2.81933688442482   12.03281278323372   -4.33110434288272
H           0.32344702464753   11.55423280480457   -2.69636976379678
H           0.80603273405493   10.44703467628336   -3.99551437226230
H           0.52659515538131   13.32145384775688   -4.37172958311799
H          -0.58145931590582   12.19868065077160   -4.84778343388337
H           3.61021784095696   13.09537416435328   -2.16820308608420
H           1.96910996718670   12.89229878237684   -1.53635299268347
H           2.63008195071285   14.43632608355640   -3.92300951902002
H           2.09829761036993   15.01499234706939   -2.48393925496459
H           4.32490456891326   10.81490002084168   -5.37181259882741
H           5.47184598601137    8.68461590930922   -6.05390582697627
H           7.12123162137611    7.58298577690965   -4.50186936317082
H           6.10757142787226    7.28338802549473   -2.28541771876620
H           4.61910005402183    7.33831882759844   -0.12175895625117
H           2.92092525518095    7.74242341954635    1.60505609536244
H           6.70416707925059   10.69305284156286   -6.55074184920096
H           8.28566678709449    9.80660593792631   -4.09200492694736
H           6.89658391818538   12.60815900573575   -4.29762175371476
H           5.97386104087445   12.75453743063283   -5.79075885625945
H           6.29781274803157   14.18761951509972   -4.82562906717816
H           7.36711321114428   15.44826659985577   -6.48151778113927
H           9.45733007195775   16.05304361423775   -7.59602975774737
H          11.36828514571125   14.53181773894000   -7.58913753876769
H          13.17301501940361   11.01321808043397   -6.52509445048594
H          12.70532400825343   13.38009962768868   -8.42044753727597
H          15.06405287974878   11.53692931042124   -7.76397133969784
H          14.89124332392491   16.26514567031971  -11.93187655062303
H          18.93801701789061   13.42134895105758  -11.31349949712756
H          20.09657625228913   14.69909650225675  -13.00606862659696
H          20.13641274147611   16.52490664107838  -14.65842948095334
H          18.15151670019548   17.94595850481235  -14.98750131513013
H          16.11052144155830   17.55193079172203  -13.66531555459160
