116
 SCF done       -197.446102563858          0.000813063632
C           2.70982845679977    8.25514968426959   -2.16810288219854
C           1.50385974032797    8.22677773351899   -1.52846955716854
C           0.50861924627526    9.21151325581370   -1.69924559156003
N          -0.32689754541320    9.98859673777392   -1.81827966144739
C           1.08699762203203    7.15739866902619   -0.70934892268686
N           0.69204133704244    6.28257599414488   -0.08035218911277
C           3.10187949532767    9.19381146437815   -3.21161635203972
C           4.16015719696778    8.61182774771388   -3.97073938642534
C           4.71498771086902    9.26049584875923   -5.03677318707913
C           4.24167511904173   10.54552425028799   -5.38490261505565
C           3.19761983928572   11.13879511619888   -4.61729900938069
C           2.63208069897198   10.43992892974784   -3.52602815105415
C           2.74491198837166   12.42678539765980   -4.96835056421522
C           3.29306455914995   13.09746279241483   -6.02742353966902
C           4.31974181370054   12.51226734883043   -6.78360806547773
C           4.78321523342883   11.26381843964599   -6.46952480172358
C           4.51499691330861    7.30635457049053   -3.38855935811086
O           5.30602107113288    6.48767576839283   -3.80333595429471
C           3.73171009141936    7.22288041093310   -2.12531277058394
C           4.10859723108608    6.38433827585916   -1.13482293776979
C           3.70017581467807    6.42590766608947    0.24351012559454
C           3.50245035981478    7.57780524004850    0.98405521061451
C           3.68773361342912    8.98957903962730    0.61435578917053
O           2.88004580806148    9.83632007727415    0.92153934265748
C           4.98510404469322    9.33662601713685   -0.08211537309852
S           2.99074693548221    7.21716603948390    2.59370140753086
C           3.09177368490709    5.53625334386766    2.29130477489123
C           3.46230823396477    5.24180508343007    1.01021995926703
C           3.52845676352092    3.89656506965024    0.44869199099489
C           3.05157701547764    3.66626640587245   -0.81557895148354
C           3.08529491284277    2.36305505123392   -1.36977303349131
C           2.66129397901390    1.83540183983425   -2.58138576412212
C           2.08273952919808    2.44119355609704   -3.82429994513187
C           1.48218307085971    3.85807269202245   -3.66142641574453
N           2.40342591009836    4.97936258088250   -3.77365460999245
C           3.13187960112907    2.39462653800473   -4.95795294789396
N           2.47931753584222    2.52149405921860   -6.25078883540286
C           2.90661841821184    0.40773766734596   -2.51844598039407
C           2.60159504874492   -0.57959442386381   -3.38219306695751
C           2.93285983932765   -1.99926494390696   -3.08361305227902
C           3.63714488006602   -2.22681149549268   -1.78426243149432
C           3.91026135884881   -1.22785783626327   -0.92344451268619
C           3.54053949635203    0.10129269913594   -1.23436413968345
C           3.63266668574689    1.29217184788144   -0.53884198742639
C           4.11738279124934    1.56790876684359    0.75779783514736
C           4.06202730772192    2.83597344769894    1.24061800077690
C           3.78683553827326   -2.57170956583656   -4.18499221928431
C           3.45116548300714   -3.63610150666908   -4.90024632811098
C           4.27841476065413   -4.20815936170372   -5.95807078933004
C           5.56604044152875   -4.66426538347133   -5.79768685552564
C           6.34939522642890   -4.77027729520151   -4.56421850329301
O           5.89806306833517   -4.47576244663855   -3.47912903711839
C           7.75220768482376   -5.29725088413187   -4.74099521330374
S           6.19954664713648   -5.27922482594083   -7.30697852464224
C           4.75422507586984   -4.93496015651411   -8.12051143933540
C           3.79789887876908   -4.36517829228325   -7.30611265630255
C           2.49838335052686   -3.88652180652275   -7.65430816099283
C           1.74458328782478   -3.98960204373588   -8.78331062129918
C           0.41363673054220   -3.40202351710453   -8.90603967916545
C          -0.19785972417290   -2.54094601011517   -8.02867907769056
C          -1.48415758330583   -1.99573867828656   -8.23009918351490
N          -2.52396168732632   -1.51820127802899   -8.32510970697505
C           0.32835221357084   -2.05701330281836   -6.81442280516954
N           0.66392005813999   -1.61494454862781   -5.80737247197639
C          -0.16735943779140   -3.86630870654298  -10.15775478856464
C           0.79406518546734   -4.67082073426173  -10.83128600086799
C           2.02519930216343   -4.74674227552318  -10.02985482323659
O           3.04347256101274   -5.32555616989594  -10.35185463092785
C           0.53378494618384   -5.25684709646280  -12.03634076597674
C          -0.73142042144481   -5.06672535993167  -12.63516065677299
C          -1.70251691581986   -4.26613383179672  -11.96718081515570
C          -1.40104551109322   -3.66843969271390  -10.72224278175090
C          -2.96438691562031   -4.08712322803907  -12.56995824065619
C          -3.25463603629331   -4.67035299361002  -13.77336972866043
C          -2.29733009118051   -5.45789037967561  -14.43000951806603
C          -1.06198624904516   -5.65120374405418  -13.87317299484181
H           5.51188553166902    8.80341397803407   -5.60483432386493
H           1.85118009068879   10.91247614376772   -2.95075341329752
H           1.95284981708588   12.87154334821543   -4.38422387510519
H           2.93867332477079   14.08329443406405   -6.28875376277203
H           4.74185855062165   13.05600723452866   -7.61555500231246
H           5.57410082987673   10.80860469299618   -7.04790916560646
H           4.84684310770729    5.62959652349992   -1.38861937897932
H           4.80451389702808   10.06691705342062   -0.86820956044503
H           5.49695750547410    8.46682519746903   -0.47946293148634
H           5.62381095789007    9.81113172024668    0.66335189264769
H           2.83712367205406    4.84554070388286    3.07046631383156
H           2.59143513823206    4.48001663050360   -1.34957270915290
H           1.26353344139527    1.78756811136062   -4.14605382078428
H           0.99190122336759    3.91786601733882   -2.68554350390461
H           0.70628190311220    4.00047220519866   -4.41765751307975
H           3.26841469200543    4.76950860238745   -3.28737585168607
H           2.64889049386550    5.14325827548766   -4.74436409593742
H           3.63114745239232    1.42249169766214   -4.94144960999527
H           3.90639136879964    3.15979305715086   -4.77468856758993
H           2.02868002932343    3.42612990040750   -6.33877629672780
H           3.15852433346888    2.44095424630402   -6.99926427528324
H           2.08980180248504   -0.40083502349627   -4.31716950908716
H           1.98516176885670   -2.55794859263408   -3.07841690055486
H           3.93737229054096   -3.24356350215803   -1.58600464171146
H           4.40997704743415   -1.42963644180815    0.01305466254657
H           4.52138413131202    0.76303216215652    1.35419834993631
H           4.43179960091962    3.06950267325809    2.22788985078127
H           4.73069061529790   -2.07105107113816   -4.34538406483878
H           2.49474687471713   -4.12047408731983   -4.74212605220013
H           7.72172884615574   -6.30910625039056   -5.14049695862856
H           8.25913087834411   -5.30412219294161   -3.77988801113233
H           8.30234486976011   -4.67223584759098   -5.44134457504054
H           4.65730407966226   -5.16170838433983   -9.16461706468907
H           2.04079220529861   -3.34389309658756   -6.83720911557457
H           1.28379129574890   -5.86151215662804  -12.52447419094347
H          -2.16096396626623   -3.07229671477860  -10.24336923443492
H          -3.69802387426196   -3.47924219267921  -12.06106309121828
H          -4.22433383555540   -4.52775433026121  -14.22626692596598
H          -2.54347781903767   -5.91110186198013  -15.37863574326362
H          -0.32069449763187   -6.25690220917717  -14.37378621117882
