88
 SCF done       -159.799844284876          0.000288861452
C           2.98337531808470   -5.95450664723008   -2.82099478199867
C           2.88009790345261   -6.81171592076204   -1.74050151367236
C           1.74539606298811   -6.77951207095311   -0.95244916576500
F           1.64133548975712   -7.66347845739230    0.05537423983666
C           0.68763671393960   -5.90101930019658   -1.20405735610831
C           0.79028514188828   -5.06095899737137   -2.31211832186997
C           1.92896427273017   -5.09814306500891   -3.09151911338627
F           2.01600008064765   -4.27190603696732   -4.15147602408392
C          -0.48154695842126   -5.86094204479890   -0.34813017495941
C          -1.86635337600112   -5.78902879640242   -0.80510668784584
N          -2.74902104327509   -5.79025080115787    0.15678735360270
C          -2.02997912621660   -5.85033117675027    1.30900532195875
C          -0.58516696811098   -5.90764943973946    1.01669553899002
C           0.16891588632277   -5.86168010516635    2.25015199077076
S           1.79374372857407   -5.64659110555995    2.39833880230639
C          -0.83395975451661   -5.87148504488512    3.28253656002492
C          -2.17502697546887   -5.83994290112858    2.67294135809473
N          -3.13894240576379   -5.75690725367207    3.63223696673632
C          -2.49657291272011   -5.68987320167196    4.76382659004358
C          -1.04046286818313   -5.74462267096133    4.64231566819314
C          -0.09862392763695   -5.69443342670772    5.72393249379594
C           1.15585201057346   -6.25487031623559    5.57029977245426
C           2.09636018741167   -6.15953000108636    6.60627971617160
C           3.41290979995161   -6.61088294873471    6.68349545641681
C           4.14999571935544   -7.35231875046525    5.62514018620941
C           5.41131537688893   -6.59037110582660    5.16559642463924
N           5.74778239924742   -7.00327213099608    3.82406546013512
C           4.47944631731019   -8.78254397928198    6.09286218934255
N           5.01588914428372   -9.57019520880907    4.99445609871843
C           3.91389090259685   -6.20138815662646    7.97407327057096
C           5.12123865304239   -6.34007087653308    8.55646940958544
C           5.40691547585076   -5.79565128183980    9.91180368708476
C           4.25584662409368   -5.09924098622855   10.56297530643826
C           3.05072634189509   -4.97410332764113    9.97454869256615
C           2.83220654488801   -5.49392241348839    8.67820756444967
C           1.73397076612128   -5.47759332396339    7.83798516506605
C           0.43365232256408   -4.94366846081556    7.98014884337771
C          -0.45139738399813   -5.05470125159873    6.95522149403906
C           5.86650962265782   -6.91727066382900   10.81051739285074
C           7.07383265800608   -6.94960907960496   11.38242465026592
C           7.54936091439197   -7.97566886494944   12.25848982543033
C           6.84568652811016   -9.15999427358260   12.75158255626972
N           7.54917567757415   -9.91234718326185   13.55169252972536
C           8.76366357128243   -9.30083598620763   13.65423241987838
C           8.79346325435956   -8.07879988399349   12.83526468799488
C          10.06874800390446   -7.42383603149195   12.95657116571989
S          10.50813111867968   -5.99973705753147   12.26144206150038
C          10.81978869055988   -8.27020378750484   13.85707388946227
C           9.97870338374939   -9.41498865666909   14.27723787672414
N          10.64552544439937  -10.19962360960439   15.16368765121878
C          11.79829568727195   -9.61923938818215   15.34638745564602
C          11.98867622511710   -8.39470171734189   14.56544335881468
C          13.17926243846828   -7.57114139365272   14.56280890016091
C          13.55979398422137   -6.87498333399412   13.41328352143924
C          14.70150253116068   -6.10066537224859   13.42433643644597
F          15.05780704000287   -5.45189585783807   12.30138659071147
C          15.49864725062703   -5.97333040867988   14.55029736909310
C          15.13031498488969   -6.65113515741440   15.69822026585742
C          13.99441376471776   -7.43773237982660   15.69240654126312
F          13.66048065873232   -8.06767173409487   16.83662394614140
H           3.85767223437683   -5.94863196051972   -3.45120484700026
H           3.66951248889712   -7.50548062840137   -1.50009455039034
H          -0.00152127059283   -4.36727999647525   -2.54712067002102
H          -2.17611223643687   -5.76843513091225   -1.83532995231214
H          -3.04334159419655   -5.64339582120869    5.68982439552500
H           1.40520957562530   -6.77184401264091    4.65820643447135
H           3.50971427305765   -7.42809179490841    4.74115163011208
H           6.22278568177253   -6.75703252854369    5.89309301917778
H           5.18970920891025   -5.51813119647176    5.14652841844632
H           5.95446184551989   -7.99723958623416    3.81788129178245
H           6.54008843185432   -6.48630822495767    3.46386982325874
H           3.56438869966798   -9.21887773002456    6.53079857841208
H           5.23873357818561   -8.75237387447631    6.87939046239226
H           4.31854959916152   -9.66096271070789    4.26180754689299
H           5.25251891139354  -10.50360928963095    5.31398883586420
H           5.93828850229887   -6.85804137951087    8.07601977996977
H           6.24304004641551   -5.08642306120779    9.81886924358667
H           4.44226753625317   -4.70789146413134   11.55126772152478
H           2.24255726079344   -4.46349430147016   10.47757704617062
H           0.15835656429377   -4.44358398902732    8.89688936100569
H          -1.43909071157940   -4.62947582382735    7.04664671084438
H           5.13806053588178   -7.69697985515220   10.97871294634185
H           7.78409321038421   -6.15414279311354   11.19179312325377
H           5.83633909856619   -9.43741643701052   12.50293012366458
H          12.52689368587926  -10.05459295207189   16.00636150781192
H          12.96981116070553   -6.94384511669844   12.51412865194294
H          16.38180508017919   -5.35624415380850   14.52131318156193
H          15.71431968540317   -6.57767938033018   16.60174061137544
