113
 SCF done       -200.319601533866          0.000303594135
C           6.28125296828290  -12.60183546260750  -15.38706818418046
O           7.15550299186209  -11.76119764643376  -15.47615301493749
N           5.71238627964884  -13.14184507148491  -16.52435527974903
C           6.17593046507340  -12.68831349715002  -17.82504866003693
C           4.71551202649414  -14.09232104894705  -16.54080688604529
O           4.26077808516734  -14.51915275563883  -17.57645657167825
N           4.26273906720816  -14.53176409235416  -15.31535454861181
C           3.21099728640116  -15.53432329386531  -15.36618786083857
C           4.71446041082509  -14.10455526925152  -14.07485579590229
O           4.21895466027769  -14.57556568580971  -13.06763309277603
C           5.77203378809075  -13.10158840182542  -14.09891307688054
C           6.38940417923202  -12.53436279358517  -13.00825618784176
C           6.26720520755883  -12.67296289721884  -11.61670574000218
S           7.35047590569070  -11.68593432093322  -10.64412792054171
C           6.70106613485548  -12.31842571988011   -9.17402127610314
C           5.69664617408345  -13.24365394000890   -9.43780729349779
C           5.45800831863307  -13.43872436798015  -10.78666781437184
C           7.17508389773619  -11.91075197597512   -7.90124713689669
C           6.73718695407584  -12.33689623917159   -6.66034529525762
C           7.41484551303723  -11.74692306932854   -5.59963509846708
C           8.39138196966754  -10.85131807758052   -5.99893804450199
S           8.45921786171620  -10.74679309001446   -7.73163377130972
C           9.25773591061296  -10.09269603650408   -5.16964013367403
S          10.42988295175395   -8.99221868206846   -5.83719357550748
C          10.99539219827393   -8.55286496680162   -4.24919527718819
C          10.29101801565589   -9.24104841250165   -3.27796397704227
C           9.32196076398010  -10.09803410434564   -3.78866694742972
C          12.03590297478095   -7.61685103499353   -4.03281476945962
C          12.69446768790865   -6.93788412111320   -5.00262286039426
C          13.73343167637179   -6.00646416382462   -4.76506155129685
S          14.29730096356121   -5.66392498651323   -3.13589152920027
C          15.43684065867332   -4.54379338179784   -3.75758652875662
C          15.38503939839427   -4.43743852770446   -5.14750193884656
C          14.42492557792792   -5.26500222852747   -5.71268324513079
C          16.40378957484189   -3.43593333790863   -5.64289773509004
C          17.43671785260193   -4.10004220502737   -6.55737958071241
C          15.72770375899233   -2.26040575274793   -6.35373769301714
C          17.02593816923854   -3.00257707000642   -4.33435994422168
C          16.43355297874036   -3.67486237563797   -3.26373188036793
S          17.10387738968096   -3.22238010041754   -1.75401113363908
C          18.19729152337340   -2.10663466443624   -2.55864718631763
C          18.01821106362658   -2.11900041296534   -3.93534168972115
C          19.08802639672644   -1.35391455305841   -1.75443944577728
C          19.96751913903001   -0.42467082606798   -2.20415700810487
C          20.83751625171637    0.31982099908141   -1.36510844307819
S          21.88533126530521    1.52748140505979   -2.06176232849633
C          22.53460010474259    1.93952271598349   -0.50034772521193
C          21.95676965595894    1.16463034581051    0.48588251404354
C          21.01234947309698    0.26363842695668    0.00572219273928
C          23.51307117872360    2.95296629809056   -0.34617807875701
C          24.09269657061981    3.74502660232551   -1.31704682737773
C          25.01597102034433    4.65648468707899   -0.81116175156041
C          25.16672815755277    4.58488942953160    0.55892035786379
S          24.13436095192773    3.35000184576014    1.23094359771127
C          26.00467984334414    5.35916583960773    1.39781542582319
S          27.02304332731898    6.61115438690734    0.76138566760791
C          27.62593498512141    6.99975346503169    2.35553363485731
C          27.04281631612755    6.17422199315838    3.30571738775088
C          26.14249168769076    5.26357819017233    2.77353466517435
C          28.57003249192218    8.03538376108621    2.52279947828188
C          29.09552598253127    8.41887060615529    3.72130973405841
C          30.02951935645041    9.46592973300660    3.81891970695000
C          30.62824481205764    9.94874623740438    4.95725050053276
C          30.37135517863862    9.41548177964271    6.29141097964298
O          29.61176393215986    8.49652651549712    6.53725533537626
N          31.06639980112056   10.03195868264741    7.32270396995713
C          31.95302052466607   11.08109863295937    7.19457501738725
O          32.50799509258071   11.55367086379535    8.16022250547465
N          32.16680434456237   11.55264553829441    5.91679166700690
C          31.56662338153788   11.05892904730734    4.77235441569424
O          31.82881963057950   11.54797611772439    3.69093706382577
C          33.09551122891099   12.65656199351803    5.74249183887175
C          30.86276497003252    9.55327930048265    8.68028085051742
H           6.98147383898593  -11.97755291807797  -17.65877225381266
H           5.35573594267955  -12.21474060241647  -18.36396595969132
H           6.52973457820799  -13.54056093006500  -18.40408710762995
H           3.57815138106529  -16.42666126745908  -15.87240208159238
H           2.35927601238290  -15.14315736007400  -15.92142274485412
H           2.92472824245567  -15.76899886097839  -14.34425727444127
H           7.14906286982892  -11.81284413733489  -13.30430640738724
H           5.16090403779463  -13.75656795024835   -8.66012980663892
H           4.72186172472348  -14.11413028241992  -11.17958708725909
H           5.94814003025193  -13.05525354116446   -6.53339153642107
H           7.20443222859723  -11.96126677647109   -4.56803519799410
H          10.48490117416149   -9.11482414822054   -2.22765072838738
H           8.68418353281336  -10.70877768256652   -3.17615482242822
H          12.30347309568767   -7.44948915491530   -2.99671170563441
H          12.42577610701865   -7.09780491436479   -6.03942772110565
H          14.21540601170269   -5.34290702983522   -6.76446206787019
H          16.95368228234830   -4.47284568582873   -7.45721338648474
H          17.91336912336160   -4.93363255030777   -6.04641247697386
H          18.20172673131046   -3.38151961527330   -6.84118471925066
H          15.22176626771831   -2.60753611488078   -7.25124344651124
H          16.46941310807953   -1.51649638730034   -6.63397895222585
H          14.99537848004691   -1.79337132944944   -5.69894825888635
H          18.59610279350894   -1.50541332680359   -4.60179470680222
H          19.03211139688543   -1.55398454870654   -0.69350377052203
H          20.02695437576482   -0.20828302777786   -3.26121285080300
H          22.22443270871069    1.26507821368593    1.52326695482152
H          20.46956637029207   -0.41350860406373    0.63926882932949
H          23.84093724202713    3.65327886961833   -2.35871288957076
H          25.56678957373475    5.35692991796331   -1.41382390565152
H          27.27310325256385    6.24234611278338    4.35305743821278
H          25.59218760598151    4.54355446935404    3.35336865038484
H          28.88414987251601    8.55081180441086    1.62313458579017
H          28.80093558479916    7.92234543252097    4.63178070562691
H          30.32299187926587    9.96467585113168    2.90033376975930
H          33.46663390271369   12.94406999539060    6.72254616397034
H          32.58129383777538   13.49164506015240    5.26745291076151
H          33.91789179152262   12.34304780133273    5.09975183785342
H          30.14796195787371    8.73533029899421    8.63884545682228
H          30.48076350648599   10.36222081657617    9.30217071767593
H          31.81015725878400    9.21095932555111    9.09542667439071
