94
 SCF done       -169.060277858516          0.000301746909
C           0.29094104327223   -8.87104401935247    1.88267508114898
C          -0.31233579838216   -9.08805417087377    0.66830980537047
C          -0.78785099618879  -10.30003590143810    0.16105151293631
N          -1.17852650917719  -11.29259547801475   -0.26147779305446
S          -0.44838002161744   -7.62745744105887   -0.26015197459487
C           0.31489681482807   -6.70669774438102    0.99194914953136
C           0.64944999451208   -7.52538939791875    2.07279558205465
C           1.28248505299767   -7.08467579219940    3.25340874181999
N           1.78845422595323   -6.86335694089556    4.25754644363850
C           0.58655635969338   -5.31116568606160    0.94816612852849
N           1.20495960876723   -4.77623495578756    1.99188817908805
C           1.35610465173540   -3.46966916573224    1.70419672246423
C           0.80133736605905   -3.14843437449844    0.38740627418921
C           0.98317381757388   -1.71945966347957    0.09324081678406
O           0.66422552770335   -1.09938207748768   -0.90218105652640
C           1.65817503009283   -1.21942991804033    1.30430678211848
C           1.87090689697917   -2.32130220089905    2.26356246916297
N           2.48943624048241   -1.87229486377124    3.38022263620539
C           2.66820501454952   -0.58851415219811    3.18064886083999
C           2.17106297865410   -0.11401329416659    1.90381242640098
C           0.29131193477650   -4.32687453408199   -0.11605073338587
C          -0.37238848043945   -4.58962580006195   -1.34528182210111
C          -0.58113051282275   -3.63673584194846   -2.28368000288632
C          -1.23866707688312   -3.80480321957893   -3.54826569075752
C          -1.30841854431776   -2.70817386325819   -4.39131841131268
C          -1.92917375603756   -2.80920112377039   -5.64569601111906
C          -2.11383747123981   -1.87690411224177   -6.66885344220460
C          -1.67978842416063   -0.45563061650729   -6.72394799929537
C          -2.12376185264745    0.35181089908095   -5.48622136994814
N          -2.39334268240257    1.71919759401422   -5.88727778257293
C          -0.15298366478429   -0.37046927101554   -6.92907956530687
N           0.18677862386757   -0.91863953060128   -8.22894239649077
C          -2.79586693436438   -2.56230973570718   -7.73780560592365
C          -3.16261614751607   -2.14319520443242   -8.96519314199318
C          -3.88225229806017   -3.04347171380000   -9.90081165475022
C          -4.02678779542597   -4.45885691049484   -9.43243051659474
C          -3.65149442592216   -4.85964858304826   -8.19895632485363
C          -3.03164930906563   -3.95047723721636   -7.31680508052990
C          -2.50026946573327   -4.08667843989107   -6.04467477865677
C          -2.42858154804663   -5.18847161433893   -5.16551355778022
C          -1.81576857527169   -5.04837467178707   -3.96082405929404
C          -5.31634870858293   -2.60006704580553  -10.02825803583430
C          -6.01341614651042   -2.66698252163153  -11.17392880669527
C          -7.38970652363906   -2.29777831173552  -11.24448085231302
N          -8.03957762044611   -1.79267645899199  -10.20461890870679
C          -9.29184103597027   -1.55141662664842  -10.63202694396746
C          -9.46033319032080   -1.93481426465781  -12.04430014547587
C         -10.83821739035672   -1.66739923631173  -12.49302913583947
O         -11.32403132821691   -1.86677825496317  -13.58543187769788
C         -11.46429521926279   -1.10415147160828  -11.28578915627576
C         -10.48967860175281   -1.05340380829480  -10.17519492522336
N         -11.06143024831946   -0.53889367925322   -9.06111271622338
C         -12.30018832861465   -0.27214030891191   -9.40402204456884
C         -12.61871174161197   -0.59977211637986  -10.77682459997688
C          -8.24337503291566   -2.41665227862523  -12.45090724357738
C          -7.81697869092121   -2.95411677900714  -13.69991752810578
C          -8.61414933523712   -3.07877051914623  -14.78176068732302
C          -8.19502112692242   -3.64151669277409  -16.03259391100372
C          -9.04605612868681   -3.72435670592209  -17.12518544406251
C         -10.37379032182583   -3.29497140683914  -17.20332396245609
N         -11.46450483056189   -2.95525567522104  -17.30933222135501
S          -8.30202781125301   -4.45316619543856  -18.51544780274637
C          -6.84502580122506   -4.65737353586887  -17.65201429113081
C          -6.91117111293093   -4.19390363820252  -16.36347665861929
C          -5.79171487026257   -4.29252974774405  -15.51726195959300
N          -4.85208450229459   -4.39709374357913  -14.86596616731107
H           0.46897416130475   -9.64694403083385    2.60606805988370
H           3.14850053714367    0.01602380252682    3.93014376196251
H           2.21972007822614    0.89771689698318    1.55224029656566
H          -0.71354396478521   -5.60096855246580   -1.51037659825095
H          -0.21859603680042   -2.63728871196244   -2.08068459163937
H          -0.87372762370629   -1.77388423123106   -4.07164226007760
H          -2.14702668548349    0.01874022125660   -7.59072318723330
H          -1.36241962338017    0.27256152455764   -4.69465090386144
H          -3.05727008192195   -0.06747835637136   -5.10152288689923
H          -1.53808823530999    2.19058268964264   -6.16057832376532
H          -2.81192891577304    2.24286725309312   -5.12783917499495
H           0.34990327579861   -0.87998788864480   -6.09072291674563
H           0.15099212164308    0.67938832561513   -6.92516355118631
H           0.00515322578669   -1.91688784171712   -8.24893451192533
H           1.16761407059695   -0.77179543127346   -8.43670470441421
H          -2.97970916632077   -1.13359493441163   -9.30324775894941
H          -3.41074864366850   -3.01375914402124  -10.89046688703630
H          -4.49247410684304   -5.14014356608506  -10.12683788768545
H          -3.79040291182749   -5.88505030322037   -7.88874569187615
H          -2.86053819113306   -6.13348056599582   -5.45986114465274
H          -1.76293695087682   -5.89351533690474   -3.29264394515720
H          -5.81345024295428   -2.28283278104020   -9.12365121176858
H          -5.53597376671389   -3.00515232222267  -12.08358342333990
H         -12.98089748878944    0.15348337122930   -8.68719026574898
H         -13.57086260641479   -0.45898335091126  -11.24869834272141
H          -6.79043727450679   -3.28271251831487  -13.75247755400311
H          -9.64347884752880   -2.74462844771694  -14.73665609984246
H          -5.99653934960277   -5.11173397763700  -18.12674910880959
