102
 SCF done       -175.660445279259          0.000590942718
C           2.36046902170262    0.11069158587543    6.53161968323790
C           2.18166157533826    1.38884860790067    6.07594654958787
C           0.96910471012812    2.03874265024118    5.83719401751258
N          -0.02981909824552    2.57016372275661    5.64600210165230
S           3.70015000736088    2.19381743527378    5.78313950312673
C           4.59076285979842    0.80353115649172    6.28801722375817
C           3.72406820875182   -0.22667455768560    6.65259172759630
C           4.16600075857897   -1.51226616831689    6.99668446124738
N           4.51048360919330   -2.58142793813374    7.23798904915102
C           6.02005574697305    0.70970116247878    6.38528172710646
C           6.63697166129715   -0.01953420481877    7.37775644467023
C           8.03807322324621   -0.10545591522023    7.08818637852975
C           8.96072018985028   -0.78523145781830    7.88193698690763
N           9.69160439333615   -1.40514254791904    8.51868582080703
C           8.26804049426147    0.51424431308418    5.87941278962317
C           7.03284341418939    1.05511085819924    5.40163067680551
C           6.90102724711308    1.71138269088491    4.17481965999947
C           7.70177905640301    1.38451152237908    2.95916754129285
C           7.46787416392555    2.38610596312816    2.03701529071787
C           6.52405595551672    3.28670039715622    2.59009524305693
C           6.15225174300895    2.84854722026124    3.86686825057532
C           6.04638952820551    4.44114697960586    1.95931882599375
N           5.65572265954737    5.38609376268957    1.43631765278143
C           8.39504213421284    0.18488099410575    2.70989517381485
C           8.26899985527798   -0.95787587569655    3.44795291810156
C           9.02900035436608   -2.15834377081557    3.33784924632311
C           8.91467150424329   -3.07444700915629    4.38044196715391
C           9.64568306612609   -4.26224785718591    4.35546382466914
C           9.71698053897149   -5.30961530250393    5.28091963436950
C           9.15930108694940   -5.39571674785194    6.65147597927548
C          10.05263675928845   -4.54613900817297    7.59865524370761
N           9.77406020612871   -4.88919483835739    8.97371045784878
C           7.65644871221396   -5.04634738804636    6.78121272492213
N           7.37971556172004   -3.62562094404327    6.88650598632137
C          10.58508161538871   -6.30770908357246    4.69741667755188
C          10.95341701988506   -7.52554745048592    5.14086895600999
C          11.85360613558711   -8.40560506699301    4.34573731993717
C          12.31684960763664   -7.81486010575147    3.05610077265115
C          11.93177398217622   -6.60076927433204    2.62032168736246
C          11.05742766853038   -5.80802296976364    3.40229061490305
C          10.48712102479357   -4.56235798764244    3.20827254034202
C          10.59599279718806   -3.61384039009389    2.16648191824988
C           9.90743786474361   -2.44412260995444    2.24432597384995
C          12.97995544385664   -8.86212905517355    5.24917418967663
C          14.25142777341531   -8.49393116466383    5.11754653065489
C          15.30204934333993   -8.94274034730679    6.00595320537743
C          15.21106764379870   -9.13857648151901    7.34640005472560
C          16.52409847445515   -9.50526158818940    7.85619069543147
C          16.79963136919415   -9.83196646037715    9.18917774285868
N          17.02680440798499  -10.10393527811478   10.28127160585704
C          17.41904669704174   -9.48411246344953    6.82626850194229
C          16.70683916118144   -9.14568294676380    5.61839201588995
C          17.21681614534887   -9.13840144084239    4.34269613168447
C          18.63791998024933   -9.08512642557930    3.93655434623817
C          18.69803366742400   -9.40011494356342    2.60934668681219
C          17.35413314978075   -9.61121564076524    2.12437854615890
C          16.46711237649531   -9.40330933292755    3.15130461626679
C          17.02024843229956   -9.96457971118510    0.81070901196353
N          16.73702662018322  -10.24385306663032   -0.26628793696960
C          19.74004396521169   -8.62610166634164    4.72254162130032
C          19.61021949343837   -7.79740681257389    5.77954785212942
C          20.65696033886949   -7.33623009252073    6.64153338556632
C          20.36459406368454   -6.60660665543138    7.78782153261540
C          19.08162245809833   -6.26045480972359    8.21184574332450
N          18.00974601540118   -5.99545239447553    8.52815942864262
S          21.77690278132147   -6.17829804772751    8.69932261878291
C          22.77179811583322   -6.96497835633376    7.55735887194249
C          22.07005976080131   -7.53637329409667    6.52718153823572
C          22.72925561226890   -8.22080147520285    5.48909002489939
N          23.30197024184698   -8.76921106964144    4.66061144494498
H           1.55229722080467   -0.56127763025970    6.76042901016261
H           6.16838816745236   -0.43735594987263    8.24914919525172
H           9.22166480398558    0.65454837315063    5.40757729470916
H           7.87424949607651    2.45212028327503    1.04524566558400
H           5.52763291010489    3.40279907253105    4.53973341782242
H           9.03507455916719    0.19237723564814    1.83588900621224
H           7.51930204294681   -0.98136563321069    4.22568366971388
H           8.27140399440085   -2.87579368375933    5.22810822821912
H           9.26215373670471   -6.43017081999401    6.99346618611200
H           9.91072776728700   -3.48331163912893    7.36099243499773
H          11.09618783994997   -4.80118568450142    7.39278694702800
H           8.91040218884226   -4.46624452857002    9.29233753896978
H          10.51836929424984   -4.57549810466568    9.58297684652295
H           7.27517125890524   -5.60845258301860    7.64735946470605
H           7.14112286484007   -5.41714507670717    5.89030154127672
H           7.71465427815702   -3.25471749431536    7.76890690829936
H           6.37718936333668   -3.45944031420399    6.84891903193496
H          10.61745035177287   -7.91297473554650    6.09277968184586
H          11.27685800910191   -9.31547966469259    4.10267656661887
H          12.96855547834630   -8.43489230151080    2.45865365876947
H          12.27808450946439   -6.22042702912931    1.67058119741518
H          11.22721793727765   -3.82666566463347    1.31626586769359
H           9.99440829183347   -1.72028507142486    1.44869329376306
H          12.68635816857612   -9.52816340569949    6.04835262090879
H          14.54725998364141   -7.83228448777268    4.31439518924785
H          14.34150697062666   -9.01940092313562    7.96462984911208
H          18.44896492786022   -9.77923196443911    6.87577367323775
H          19.57852256589513   -9.44040035679745    1.99586039480776
H          15.40764724415725   -9.56581890073906    3.10844887108666
H          20.72039519125156   -8.93250743279768    4.38407179529475
H          18.62653806658144   -7.43430955831117    6.04955635854350
H          23.83662836213339   -6.97592785526764    7.68982136311977
