146
 SCF done       -230.226323414431          0.000685363402
C         -12.71644481433728   -5.84092977861212    4.22405882165663
O         -11.68124557837958   -6.46583123166286    4.28109600489238
C         -13.44490112271595   -5.27276718298557    5.38242740381153
C         -14.62122648248171   -4.64003803979614    4.94766960193479
C         -15.46127024563653   -4.04378455781673    5.87829920453262
C         -15.11040451579968   -4.08721866366471    7.21880905321953
C         -13.94033884181865   -4.71606886236182    7.62449158173505
C         -13.08720551143315   -5.32350818400819    6.71379078760578
Br        -13.50068778503961   -4.74749517228098    9.47315584812713
C         -14.70661710586983   -4.76034423576837    3.49614273861429
C         -15.65151298932174   -4.16532117547785    2.70264293306338
C         -16.72387559643090   -3.39324989184476    3.19642058237699
N         -17.61917941912142   -2.76206943177287    3.53980584427294
C         -15.67200603432527   -4.20826891867852    1.29204957759803
N         -15.74952255234964   -4.17647612071396    0.14674081063114
C         -13.57082446819578   -5.54793730975524    3.04559406290480
C         -13.45109409510877   -6.11281743231365    1.81040923449984
C         -12.33478240986453   -6.83927911405523    1.28175598056570
C         -11.00559150193541   -6.52866599095971    1.61613656050016
C          -9.99115121584492   -7.29762432265450    1.10778652573266
C         -10.26596151335101   -8.38836709544910    0.26161607400802
C         -11.57311818942399   -8.66962653031391   -0.11959601785912
C         -12.59008544367030   -7.88340462524948    0.37455073438778
C          -9.01920950498176   -9.04167098371034   -0.06629556129460
C          -7.97266566324164   -8.34810666768247    0.56586806828058
C          -8.50563011738249   -7.16903091517122    1.34418455825809
C          -7.96347739124132   -5.83894409827328    0.78704019952221
C          -8.25110025913618   -5.65576180858172   -0.69833385886780
C          -8.16270721866668   -7.27843847338209    2.84151386652871
C          -8.72201011901014   -8.54016145151429    3.48683061357112
C          -6.67362827426021   -8.78040859507860    0.44300891774992
C          -6.39906583654637   -9.93283247431864   -0.30034713917444
C          -7.44723101645129  -10.61117818387909   -0.92843119355059
C          -8.75260560347192  -10.17269641512148   -0.82536045962534
C          -5.02720346202691  -10.44455330013101   -0.37936322486887
C          -4.78723906314895  -11.78606291560943   -0.25156310714687
C          -3.45900835968831  -12.27386540200036   -0.23738181411250
C          -2.94667478190297  -13.54913829592098   -0.06656701404750
C          -3.64583588145360  -14.85630187625582    0.11084872453757
C          -4.03294569524555  -15.09726907843331    1.58552448107633
N          -4.96951467387240  -14.08879747483589    2.04580950576193
C          -4.88518226473896  -15.02915751873586   -0.78111652524941
N          -5.13191458234648  -16.44899958527659   -0.98309788801095
C          -1.50618831701326  -13.41703791351914   -0.04737883147609
C          -0.53954224468068  -14.32126700663265    0.18829446134936
C           0.89994914592893  -13.93229821732780    0.23750903880318
C           1.16840768434742  -12.50626645426876   -0.11534225042322
C           0.18745124477364  -11.60832854468031   -0.32533148749857
C          -1.16946806914433  -12.00497552574364   -0.27102059024947
C          -2.36308295546424  -11.31950396639101   -0.37708453776776
C          -2.65060818614739   -9.94613321847264   -0.55332710311098
C          -3.94142531734482   -9.52686255471385   -0.54567848633951
C           1.70307137340278  -14.93666814064355   -0.55348321919381
C           2.26130044514556  -14.69707780017560   -1.73701864040205
C           3.05942981175271  -15.64070807547390   -2.50635149619953
C           3.84025414470964  -15.14644897677899   -3.55957065110888
C           4.64710076087929  -15.99905243903607   -4.27707892665538
C           4.64318872406189  -17.37554953166596   -3.99190234400127
C           3.85734703949538  -17.88127587831585   -2.96681669988207
C           3.08281670359908  -17.01089726268011   -2.22733939965898
C           5.50547461310579  -18.04789498605007   -4.93740633881441
C           6.04779640746439  -17.08643890783706   -5.80706845719425
C           5.58460809624775  -15.69729000529504   -5.42422063694160
C           4.86708133974476  -14.99660362937985   -6.58818826028715
C           3.69845038921517  -15.81405153519411   -7.12715650128005
C           6.83520347195328  -14.91140123228280   -4.96302445234056
C           6.57219273141926  -13.54842879214524   -4.33672866175341
C           6.90652686641354  -17.45996578401711   -6.81017468279259
C           7.18952940386910  -18.82078022140260   -7.00113441007133
C           6.65129831056616  -19.76853443613961   -6.11850479265071
C           5.82543700943948  -19.39125656780602   -5.08186379471902
C           8.07037073018219  -19.21644417068450   -8.06814925692201
C           8.05342861477771  -20.36684786523650   -8.78402058187860
C           9.25737439057940  -20.78807272823090   -9.55028326835609
O          10.22450149010314  -20.11550338833332   -9.81797305945630
C           9.03238178296684  -22.21916309797994   -9.85770498508543
C           7.74262780019983  -22.59491186130773   -9.43634409427604
C           7.06202932165747  -21.42135130788409   -8.89869371563311
C           5.70571702165926  -21.27651758633557   -8.77330725380128
C           4.78443849391282  -22.32414113006299   -8.97462022587755
N           4.00213425483176  -23.15339025015561   -9.10916488594119
C           5.06693589914256  -20.04479385427171   -8.52018963001339
N           4.48475949826045  -19.06431692893869   -8.38886088657965
C           7.32048080887868  -23.90691670238644   -9.59900896798431
C           8.18606848103465  -24.81802730875476  -10.18309985103770
C           9.45012398273559  -24.42338080214133  -10.60410897254630
C           9.89684934234151  -23.11829104150764  -10.44773879412362
Br         10.59649189979682  -25.70702231773401  -11.40902905656247
H         -16.37639371526539   -3.55598286374871    5.58571510391034
H         -15.75239694035073   -3.62966069665744    7.95577767660447
H         -12.17857082781974   -5.81678495355445    7.02255763981979
H         -14.31553139832511   -6.06706632848734    1.15747310584846
H         -10.79343951465670   -5.67844525090513    2.24290398499354
H         -11.78843034899576   -9.48774323214044   -0.79027615008094
H         -13.61373850136895   -8.09153948756108    0.09774615077822
H          -6.88471757093465   -5.80598473739592    0.95429596711957
H          -8.41344779967669   -5.01712777034199    1.34779027209142
H          -7.79459351994203   -6.45358185332143   -1.28013637344117
H          -7.84952859432703   -4.70541919618734   -1.04265249222572
H          -9.32241833892069   -5.66433297041719   -0.88733742405204
H          -8.56799590899592   -6.40725263963177    3.35881513857885
H          -7.07592452651961   -7.26093298350688    2.95041759450341
H          -9.80869967015010   -8.51631392105084    3.48456922372921
H          -8.38603937667513   -8.60853221086788    4.51876815261784
H          -8.38836419152628   -9.42918370756760    2.95521897805776
H          -5.86912376428383   -8.26191134266468    0.94410547452224
H          -7.22213620458908  -11.48790096546905   -1.51764106362011
H          -9.55049272075611  -10.70585140671374   -1.32058667730331
H          -5.60426581565772  -12.46986721450361   -0.09106297860239
H          -2.94151733699332  -15.65110672326778   -0.16071958618684
H          -3.10832634491714  -15.13959871479414    2.18819091216680
H          -4.52998360329172  -16.06847618161500    1.64107425185046
H          -4.51823356792611  -13.18047233395875    2.08032221547780
H          -5.29952752829226  -14.31200747371128    2.97755604670339
H          -4.73690782333720  -14.47459839733922   -1.72269663259576
H          -5.75224858662894  -14.61877661843955   -0.26257612095583
H          -4.40765089427281  -16.85456441176241   -1.56755381680506
H          -6.02014177694849  -16.59064728485558   -1.45070478291400
H          -0.76230814639075  -15.36404231052139    0.37240040174954
H           1.21183423839891  -14.06275969984846    1.29016108109815
H           2.20822266033195  -12.21658719232274   -0.14287807027693
H           0.42330513854529  -10.57555418014876   -0.53941884261949
H          -1.83848119652924   -9.24481900863866   -0.68015321639368
H          -4.17514550124984   -8.48114752898890   -0.68385757257070
H           1.78611604940096  -15.90827753598040   -0.08700884160084
H           2.16408758939582  -13.71024881511783   -2.17184466670271
H           3.79249275849874  -14.09401683079388   -3.79679212552535
H           3.84531529690717  -18.93975504724190   -2.75385959270541
H           2.46529538788627  -17.40459686902615   -1.43502567721664
H           5.58780258590103  -14.81977850354215   -7.38923002697303
H           4.49924762495518  -14.02744417263136   -6.24753830854430
H           4.03485041042560  -16.77776715223627   -7.50011356172651
H           3.21612838711054  -15.27985608058744   -7.94245843678942
H           2.96033039993610  -15.98710566668731   -6.34680431217851
H           7.48400283510115  -14.78400284891320   -5.83232516394455
H           7.37229132876186  -15.53012217729514   -4.23878772377638
H           6.01464284324598  -12.90305417770096   -5.00985127139065
H           7.52169236425893  -13.06486564454480   -4.11742774406390
H           6.02308272742067  -13.64877935080964   -3.40483415650143
H           7.32979386776113  -16.73320682342464   -7.48759087662753
H           6.92443991441615  -20.80802123537642   -6.23409680735654
H           5.43157988375047  -20.12986152879154   -4.40015959677539
H           8.89026180314004  -18.54139368445221   -8.29408050301684
H           6.34514923967130  -24.23034159344732   -9.27317766369399
H           7.87722441699867  -25.84370247410742  -10.31437020047562
H          10.87885456374601  -22.80983866585674  -10.77130577250020
