99
 SCF done       -200.126700620199          0.000780357390
C           1.87784736365452  -10.66799269028435    3.73889954836567
O           1.19627478584798   -9.67551885185899    3.58211386530082
C           3.35232353475902  -10.70670776926664    3.70405085626215
C           3.80244383382937  -12.02213905728859    3.89971030138172
C           5.16662070208416  -12.27256014803339    3.95598493258566
C           6.04823451461460  -11.21238971483731    3.81137631745615
C           5.57909439047451   -9.92042447815867    3.60900326777596
C           4.22064494808620   -9.64575377595116    3.55058386380521
Br          6.81713893346938   -8.50478456480667    3.39459448975562
C           2.64174328818103  -12.89493172099779    4.04178699506213
C           2.69236999758398  -14.23698708816509    4.31613823993306
C           3.88964218193155  -14.97811213146743    4.41368310387777
N           4.82131350504407  -15.64462454412774    4.48519266366515
C           1.58039420586891  -15.07301605567165    4.55170588818471
N           0.73252047118769  -15.81672962235604    4.76936652092856
C           1.44675241654686  -12.07548529417138    3.93116145395663
C           0.17147274462508  -12.57492543490538    3.86335218089825
C          -1.06425954722952  -11.88962552454657    3.96388505049475
C          -1.23574707575928  -10.65123069440033    4.55109068455061
C          -2.44799163653253   -9.99936919066017    4.67755830838501
C          -3.70847060542434  -10.59258847260665    4.24547872619174
C          -3.79473042216208  -11.82050542366133    3.67683960553975
S          -2.43876687602586  -12.81967144882080    3.37160533357086
C          -4.70589050329265   -9.63150962022406    4.57409312415840
C          -4.11693731302054   -8.50202310893246    5.15886310700124
C          -5.08057696728205   -7.52789870173453    5.50336350484451
C          -6.33790048014174   -7.92954560771828    5.18071458391867
S          -6.41115182526353   -9.49567352751812    4.44729076145707
C          -2.69593033672948   -8.70697112013852    5.22643745416335
C          -1.66309758487303   -7.87731639397740    5.66962775204164
C          -1.75382069456063   -6.59112753104476    6.13352180331315
C          -0.65457495092156   -5.82058167276536    6.55921593112290
C           0.68862388442603   -6.27777798966339    6.71329500545884
C           1.75517578544228   -5.37044965156881    7.06256420647175
N           3.01896450992063   -5.80671167773388    7.05916092368411
C           3.27984119485371   -7.07678310596277    6.84337815190145
C           2.20726532602656   -7.99872991721924    6.67701341912691
N           0.96586743462733   -7.57287470795490    6.58468349442330
C           2.45807114639291   -9.38666351659771    6.59223244246749
N           2.68614855258165  -10.50643330381231    6.49424773366080
C           4.61326307423044   -7.54168700710873    6.76084438893494
N           5.66013989138585   -7.99821658154414    6.66517613924894
C           1.54373728132559   -4.01988826047497    7.43373016685715
C           0.19589626015231   -3.57375101113293    7.33151653805270
C          -0.85657154745988   -4.45385492950371    6.88193811942159
N          -2.03816278430192   -3.84266422261228    6.84233456270019
S          -1.86887836937838   -2.31582924094257    7.30955219677171
N          -0.28093457987881   -2.35568135702672    7.59155101236929
C           2.60067883317683   -3.24180538308819    7.99129579210295
C           2.30745071354943   -2.03437326892634    8.61290350711666
C           3.14542886516760   -1.36849475216291    9.47908990093918
C           4.57153995717473   -1.63087028419735    9.51563390653033
C           5.11770500416992   -2.68953854031288    8.86958712371546
S           4.21985572546007   -3.89458622760925    8.02806442141434
C           5.11543421241067   -0.61135611294434   10.35527824530809
C           4.08438086462450    0.17361897378635   10.88524029895131
C           4.56784985871107    1.15933052159961   11.77263777215445
C           5.92097850614133    1.10799729075638   11.88389310277852
S           6.65770716451757   -0.14145485223245   10.93664856989987
C           2.82314290534738   -0.32742376469352   10.40931561084621
C           1.55376016355728   -0.06785723095327   10.93363909319035
C           0.51058570590081   -0.95775774062418   10.76634625744041
C          -0.79951045569537   -0.85131455309281   11.20501176769794
C          -1.77443376581834   -1.81503445043832   10.99039561660981
C          -3.19094142684323   -1.42793162577721   11.16459982743437
O          -3.61429945335897   -0.40815578463710   11.66341950186850
C          -3.98152187871113   -2.52518550066892   10.55791812533898
C          -3.10555841811813   -3.53554517716619   10.12771071655749
C          -1.72707361148076   -3.15342411265790   10.47272060293531
C          -0.67225013582316   -4.04143862088516   10.38408458637682
C          -0.75774078010612   -5.32487247881480    9.81514775087267
N          -0.70274953549563   -6.36515835228107    9.32478297363929
C           0.64906463205665   -3.90089816838649   10.85227005634811
N           1.74826245196237   -3.94945288117338   11.18842698855642
C          -3.61784931938026   -4.65474867687473    9.49014877428917
C          -4.98837413964382   -4.74348397428566    9.29029046841268
C          -5.83272732436994   -3.73575416702838    9.72940700744213
C          -5.34497912084890   -2.60681972503613   10.37535101407191
Br         -7.70220297441411   -3.90394228583187    9.42725623479584
H           5.55558476928107  -13.26540684959677    4.11040214501983
H           7.11177273408347  -11.38969332171435    3.85718889492032
H           3.84912748340085   -8.64416299317253    3.39621155637037
H           0.07326210073262  -13.64241844872599    3.70303761842806
H          -0.35437469338475  -10.17922766356235    4.95248796607506
H          -4.73306284901412  -12.25427935886970    3.36839253807172
H          -4.86867465026003   -6.58107486985953    5.96470464690282
H          -7.25527357292893   -7.39400208099541    5.32961779865550
H          -0.67226496136939   -8.30002502826733    5.61670089057081
H          -2.70446401533021   -6.07778888889690    6.15459633868886
H           1.32208529438926   -1.63615166226253    8.42652361685692
H           6.17454482780428   -2.90429852657967    8.90385597131280
H           3.95483842726243    1.87174670732979   12.29374326457638
H           6.55505412751300    1.73709163256030   12.47735359348678
H           1.42628476985219    0.79538806237277   11.57396374625454
H           0.74463554923402   -1.86775090578304   10.24677026633291
H          -1.14888086252067    0.06784741737738   11.66112747282496
H          -2.98660824683371   -5.45204481953807    9.13586216405520
H          -5.40138080585072   -5.60755558195927    8.79245706394576
H          -5.99717070932640   -1.82012345152427   10.72143810941220
