# ORCA input file
# SCF done       -179.292881361749          0.000747340921
! CAM-B3LYP def2-SVP def2/J RIJCOSX Grid4 TightSCF
%maxcore 5000
%tddft
    Mode sTDDFT
    Ethresh 5.0
    maxcore 5000
end

%pal
  nprocs 6
  end
* xyz 0 1
   C        1.34590        -0.01724        -0.72496
   C        1.81908        -0.08701        -2.03650
   N        2.83430         0.85073        -2.41318
   O        3.41191         1.44150        -1.52245
   O        3.06283         1.01169        -3.59726
   C        1.30243        -1.04069        -2.92596
   C        1.77748        -1.20587        -4.34950
   O        1.33165        -2.39514        -4.95061
   C        0.30583        -1.87985        -2.45790
   C       -0.19391        -1.80970        -1.15526
   C        0.35576        -0.85909        -0.28262
   C       -1.25229        -2.69091        -0.73543
   C       -1.94132        -2.69780         0.45887
   C       -2.92496        -3.68999         0.50182
   C       -2.97854        -4.45046        -0.67914
   S       -1.82948        -3.94576        -1.82937
   C       -4.01074        -5.41128        -0.55167
   C       -4.61586        -5.25826         0.70533
   C       -3.94312        -4.17555         1.41441
   C       -4.21334        -3.72428         2.67344
   C       -5.23431        -4.28614         3.46782
   N       -6.06315        -4.74454         4.11415
   C       -3.48159        -2.67046         3.25956
   N       -2.88321        -1.81575         3.73489
   C       -5.66621        -6.14958         0.91647
   C       -5.86777        -6.98551        -0.16899
   S       -4.72596        -6.66091        -1.47071
   C       -6.84773        -8.00703        -0.32264
   C       -6.91820        -8.78711        -1.45282
   C       -7.85486        -9.79126        -1.67839
   C       -8.96412       -10.00133        -0.73745
   C       -9.07774        -9.36622         0.44940
   S       -7.95866        -8.20112         1.02767
   C       -9.80880       -10.96231        -1.35812
   C       -9.26660       -11.33814        -2.58883
   C      -10.06304       -12.29777        -3.25119
   C      -11.16604       -12.61523        -2.52420
   S      -11.28177       -11.77561        -1.01383
   C       -8.02285       -10.64318        -2.78944
   C       -7.17221       -10.85613        -3.90092
   C       -5.84149       -10.57655        -3.94035
   C       -4.99582       -10.76618        -5.05817
   C       -5.29313       -11.19729        -6.34450
   C       -4.16423       -11.24262        -7.15631
   C       -2.99007       -10.84215        -6.49440
   S       -3.28333       -10.40859        -4.86852
   C       -1.90803       -10.93078        -7.40117
   C       -2.39346       -11.38664        -8.64077
   C       -3.82466       -11.59196        -8.53187
   C       -4.68061       -12.01476        -9.50725
   C       -4.23715       -12.31174       -10.81280
   N       -3.87239       -12.55012       -11.87348
   C       -6.06131       -12.17635        -9.27149
   N       -7.18349       -12.30832        -9.07461
   C       -1.38611       -11.51584        -9.59996
   C       -0.14481       -11.16282        -9.11325
   S       -0.22831       -10.65616        -7.42566
   C        1.12351       -11.17070        -9.79126
   C        2.27314       -10.67110        -9.16293
   C        3.47933       -10.68666        -9.81431
   C        3.58856       -11.21136       -11.10421
   C        2.45654       -11.71898       -11.76261
   C        1.24829       -11.68140       -11.08856
   C        2.48681       -12.31304       -13.15604
   O        3.06560       -13.58962       -13.18178
   N        4.89186       -11.18224       -11.69370
   O        5.72279       -10.45454       -11.18932
   O        5.11488       -11.88821       -12.66325
   H        1.77514         0.72426        -0.06833
   H        2.87083        -1.12596        -4.39855
   H        1.37150        -0.39054        -4.95682
   H        1.79470        -3.14198        -4.55527
   H       -0.10946        -2.60097        -3.14779
   H        0.00518        -0.78152         0.73294
   H       -1.74959        -2.00919         1.26062
   H       -6.26411        -6.19834         1.80863
   H       -6.20455        -8.56337        -2.23349
   H       -9.88886        -9.55663         1.13431
   H       -9.84111       -12.72880        -4.21032
   H      -11.94352       -13.30816        -2.78009
   H       -7.63206       -11.32883        -4.75840
   H       -5.34680       -10.21788        -3.04960
   H       -6.28523       -11.46037        -6.66092
   H       -1.55826       -11.84762       -10.60697
   H        2.20835       -10.27116        -8.16223
   H        4.37022       -10.30215        -9.34124
   H        0.37749       -12.07416       -11.58822
   H        3.01097       -11.63043       -13.83956
   H        1.46070       -12.43938       -13.51011
   H        4.02548       -13.47395       -13.10564
*
