# ORCA input file
# SCF done       -191.599111048825          0.000915395743
! CAM-B3LYP def2-SVP def2/J RIJCOSX Grid4 TightSCF
%maxcore 5000
%tddft
    Mode sTDDFT
    Ethresh 5.0
    maxcore 5000
end

%pal
  nprocs 6
  end
* xyz 0 1
   C       -0.11730        -6.44046         0.36383
   C       -1.31202        -6.51280         1.02429
   F       -1.90139        -7.71123         1.19729
   C       -1.95725        -5.37969         1.53670
   C       -1.37152        -4.15498         1.37226
   C       -0.13856        -4.02259         0.70200
   C        0.50012        -5.18728         0.18542
   C        1.73574        -5.07916        -0.49514
   C        2.31620        -3.84889        -0.64003
   C        1.67984        -2.68943        -0.10951
   C        0.48113        -2.76245         0.53791
   C        2.53335        -1.50985        -0.36162
   O        2.29513        -0.35205        -0.10165
   C        3.78669        -2.05715        -0.94959
   C        3.55242        -3.43563        -1.29526
   C        4.24951        -4.17020        -2.22116
   C        5.25015        -3.62592        -3.05005
   N        6.04814        -3.22439        -3.77174
   C        4.04698        -5.54079        -2.45743
   N        3.98689        -6.67471        -2.63667
   C        4.91145        -1.28467        -0.94174
   C        6.28121        -1.64600        -1.05251
   C        7.24720        -0.66483        -1.31127
   C        8.59432        -0.94116        -1.43315
   C        9.13463        -2.23330        -1.32995
   C        8.18949        -3.24337        -1.01547
   C        6.80281        -2.94688        -0.84816
   N        6.19942        -4.07669        -0.45416
   N        7.15878        -4.96169        -0.40929
   N        8.34971        -4.54252        -0.72570
   C        6.90345        -6.32730        -0.06916
   C       10.53667        -2.41131        -1.44064
   C       11.25107        -3.55798        -1.67595
   C       10.83865        -4.83828        -2.12153
   C       11.85715        -5.72221        -2.29769
   C       13.13544        -5.20582        -1.97911
   S       13.00311        -3.53073        -1.50658
   C       14.33982        -5.88319        -1.97839
   C       14.57998        -7.22292        -2.36000
   C       15.87134        -7.61602        -2.19592
   C       16.72993        -6.62069        -1.65523
   S       15.82036        -5.13967        -1.42039
   C       18.04057        -6.84054        -1.31710
   C       18.96782        -5.98545        -0.67854
   C       18.79609        -4.62678        -0.38207
   C       19.72630        -3.89429         0.33225
   C       20.89908        -4.43964         0.87000
   C       21.14232        -5.79103         0.52191
   C       20.20123        -6.53647        -0.24341
   N       20.70228        -7.76799        -0.40663
   N       21.85110        -7.73499         0.20733
   N       22.17843        -6.60348         0.77496
   C       22.69675        -8.88511         0.29374
   C       21.75765        -3.63646         1.66996
   C       22.71383        -4.00275         2.57069
   C       23.75261        -3.01544         2.97019
   O       23.73941        -1.82201         2.76709
   C       24.81700        -3.81229         3.61400
   C       26.03574        -3.40707         4.07455
   C       26.90937        -4.36032         4.64580
   C       26.49922        -5.72287         4.72579
   C       27.37623        -6.66768         5.29319
   C       28.59582        -6.25896         5.75597
   C       29.01673        -4.92434         5.68813
   C       28.17819        -3.99428         5.13890
   F       29.43447        -7.16170         6.29943
   C       25.22616        -6.11259         4.24768
   C       24.39628        -5.17095         3.70284
   C       23.03538        -5.26627         3.18512
   C       22.16185        -6.29583         3.43090
   C       20.77125        -6.20125         3.22620
   N       19.62814        -6.15668         3.12631
   C       22.54146        -7.54890         3.94265
   N       22.80742        -8.61576         4.27775
   H        0.34933        -7.33429        -0.02004
   H       -2.89896        -5.49776         2.04885
   H       -1.84925        -3.26727         1.75887
   H        2.20018        -5.97588        -0.87438
   H        0.01070        -1.87123         0.92564
   H        4.72633        -0.23133        -0.74958
   H        6.91239         0.35338        -1.44669
   H        9.27132        -0.12647        -1.64552
   H        6.29930        -6.79811        -0.84797
   H        6.35590        -6.37343         0.87190
   H        7.85947        -6.83761         0.02075
   H       11.11957        -1.50632        -1.31562
   H        9.80633        -5.05539        -2.31524
   H       11.72417        -6.73336        -2.63821
   H       13.79865        -7.85486        -2.74172
   H       16.24121        -8.59924        -2.42694
   H       18.41290        -7.84014        -1.50483
   H       17.90360        -4.12374        -0.71774
   H       19.51338        -2.85529         0.53844
   H       22.27481        -9.66256        -0.33837
   H       22.74626        -9.23220         1.32796
   H       23.70252        -8.62660        -0.03704
   H       21.68042        -2.56493         1.50768
   H       26.33143        -2.37076         4.00700
   H       27.08409        -7.70376         5.36511
   H       29.99020        -4.66033         6.06983
   H       28.47999        -2.95956         5.07572
   H       24.94084        -7.15041         4.31852
*
