# ORCA input file
# SCF done       -205.717574980774          0.000276201155
! CAM-B3LYP def2-SVP def2/J RIJCOSX Grid4 TightSCF
%maxcore 5000
%tddft
    Mode sTDDFT
    Ethresh 5.0
    maxcore 5000
end

%pal
  nprocs 6
  end
* xyz 0 1
   C       11.32936         4.48145        11.95991
   C       11.21017         4.71818        13.30105
   F       11.85568         5.76502        13.84918
   C       10.43541         3.90797        14.14165
   C        9.77313         2.83996        13.60295
   C        9.86073         2.54945        12.22624
   C       10.65197         3.38735        11.38763
   C       10.74484         3.12344        10.00056
   C       10.07110         2.05505         9.47575
   C        9.29569         1.20994        10.32168
   C        9.18271         1.44574        11.66092
   C        8.70730         0.12113         9.51598
   O        7.95583        -0.75493         9.88406
   C        9.28413         0.28870         8.15794
   C        9.94051         1.57291         8.10308
   C       10.13006         2.33223         6.97555
   C       10.69344         3.62221         6.98560
   N       11.16316         4.66927         6.94388
   C        9.67002         1.93921         5.70263
   N        9.24882         1.67380         4.66769
   C        9.19472        -0.73421         7.25794
   C        9.98266        -1.00790         6.12327
   C        9.64614        -1.91111         5.12226
   C       10.64013        -2.01510         4.16253
   C       11.78501        -1.22381         4.43932
   S       11.59586        -0.32672         5.89337
   C       12.69189        -1.45185         3.41060
   C       12.08142        -2.37301         2.52074
   N       10.84242        -2.70624         2.99637
   C       12.86754        -2.70461         1.42567
   C       14.09180        -2.04626         1.45173
   S       14.26073        -1.00045         2.86339
   C       15.15423        -2.11530         0.53041
   C       15.16349        -2.89932        -0.59183
   C       16.22476        -2.95685        -1.49910
   C       16.23159        -3.75474        -2.62174
   C       17.25400        -3.86846        -3.58992
   C       16.97824        -4.74361        -4.59999
   C       15.72121        -5.37188        -4.48402
   S       14.89632        -4.81367        -3.04651
   C       15.14698        -6.30046        -5.33425
   C       15.67176        -6.83861        -6.52701
   C       14.84568        -7.73415        -7.13855
   C       13.61920        -7.96009        -6.46699
   S       13.56569        -6.97820        -5.01444
   C       12.62815        -8.81107        -6.89582
   C       11.39572        -9.08881        -6.28826
   C       10.84971        -8.61657        -5.09853
   C        9.59130        -9.15096        -4.86347
   C        9.14148       -10.04431        -5.86973
   S       10.31362       -10.21688        -7.11828
   C        7.87872       -10.48235        -5.48654
   C        7.58181        -9.85138        -4.24937
   N        8.63458        -9.05137        -3.88917
   C        6.34325       -10.19121        -3.72792
   C        5.66236       -11.07570        -4.55487
   S        6.58615       -11.49388        -5.99813
   C        4.37010       -11.61406        -4.40396
   C        3.58650       -11.48231        -3.29397
   C        2.29322       -12.02070        -3.14442
   C        1.37901       -12.42472        -4.08160
   C        0.29416       -13.34529        -3.65105
   O        0.00945       -13.64607        -2.51220
   C       -0.31825       -13.84408        -4.89716
   C       -1.28233       -14.79532        -5.06194
   C       -1.69852       -15.13518        -6.36905
   C       -1.09580       -14.48339        -7.48369
   C       -1.50858       -14.83252        -8.78411
   C       -2.47804       -15.78226        -8.94833
   C       -3.08452       -16.43256        -7.86552
   C       -2.69380       -16.10726        -6.59626
   F       -2.87489       -16.11613       -10.19095
   C       -0.10269       -13.49594        -7.28116
   C        0.27342       -13.17425        -6.00571
   C        1.22906       -12.18957        -5.49679
   C        1.67871       -11.10609        -6.21248
   C        2.40129       -10.03433        -5.65668
   N        2.96702        -9.12002        -5.25252
   C        1.40091       -10.89471        -7.57711
   N        1.22086       -10.67785        -8.69052
   H       11.93169         5.12910        11.34220
   H       10.37825         4.14393        15.19246
   H        9.16984         2.20078        14.23008
   H       11.35448         3.76881         9.38788
   H        8.58160         0.79967        12.28318
   H        8.45770        -1.49359         7.50386
   H        8.70201        -2.42408         5.10241
   H       10.18030        -3.31600         2.54971
   H       12.57743        -3.38108         0.64401
   H       16.01771        -1.49924         0.74281
   H       14.30609        -3.52238        -0.80841
   H       17.09691        -2.34238        -1.31974
   H       18.16314        -3.29875        -3.51198
   H       17.64351        -4.95098        -5.41877
   H       16.63731        -6.55266        -6.90344
   H       15.07769        -8.24361        -8.05707
   H       12.82325        -9.33137        -7.82480
   H       11.35074        -7.92572        -4.44832
   H        8.68299        -8.46932        -3.07155
   H        5.93259        -9.80692        -2.81352
   H        4.01039       -12.21260        -5.23104
   H        4.00259       -10.99980        -2.42105
   H        1.97564       -12.21095        -2.12264
   H       -1.72350       -15.28342        -4.20582
   H       -1.06641       -14.34915        -9.64128
   H       -3.84447       -17.17363        -8.05632
   H       -3.14616       -16.59453        -5.74556
   H        0.34071       -13.02520        -8.14418
*
