# ORCA input file
# SCF done       -165.813544280319          0.000592707083
! CAM-B3LYP def2-SVP def2/J RIJCOSX Grid4 TightSCF
%maxcore 5000
%tddft
    Mode sTDDFT
    Ethresh 5.0
    maxcore 5000
end

%pal
  nprocs 6
  end
* xyz 0 1
   C       -2.74984         0.53898         3.02234
   C       -1.85454        -0.40001         2.67894
   C       -1.00396        -0.19175         1.53404
   C       -0.07545        -1.12734         1.12020
   C        0.74360        -0.91422        -0.00109
   N        1.40998        -0.73800        -0.92010
   C        0.10154        -2.35134         1.78647
   N        0.25184        -3.35566         2.32308
   C       -1.18859         1.04708         0.84863
   C       -2.12730         1.93835         1.27484
   O       -2.91438         1.69387         2.35514
   C       -2.41727         3.20224         0.66745
   C       -1.82246         3.83902        -0.40430
   C       -2.42785         5.06840        -0.67072
   C       -3.49234         5.35101         0.21297
   S       -3.74166         4.12204         1.36726
   C       -4.05066         6.59557        -0.13209
   C       -3.34443         7.12061        -1.23915
   C       -2.29642         6.17171        -1.60416
   C       -1.38469         6.30702        -2.61064
   C       -1.36234         7.44053        -3.44914
   N       -1.34428         8.36310        -4.13020
   C       -0.40521         5.32687        -2.87573
   N        0.39342         4.53362        -3.09289
   C       -3.83523         8.34561        -1.65457
   C       -4.92142         8.77537        -0.87852
   S       -5.31167         7.61175         0.38932
   C       -5.64502         9.96051        -1.05433
   C       -6.72276        10.36921        -0.29707
   C       -7.50214        11.54193        -0.44139
   C       -8.52152        11.66070         0.46394
   C       -8.59406        10.58679         1.36993
   S       -7.33242         9.42641         1.03989
   C       -9.44609        10.29635         2.42796
   C      -10.55139        10.96291         2.98307
   C      -11.11060        10.30530         4.04649
   C      -10.47612         9.08724         4.38692
   S       -9.14252         8.81076         3.29378
   C      -10.80698         8.23639         5.42326
   C      -10.16516         7.03854         5.75881
   C       -9.11169         6.37436         5.11879
   C       -8.72953         5.22456         5.77957
   C       -9.48141         4.96401         6.94688
   S      -10.67721         6.16611         7.20872
   C       -8.98910         3.78479         7.53522
   C       -7.92541         3.29093         6.73957
   C       -7.73068         4.17393         5.61525
   C       -6.80340         4.06162         4.61534
   C       -5.89436         2.98619         4.55680
   N       -5.15431         2.11151         4.49440
   C       -6.67134         4.99729         3.57037
   N       -6.52949         5.74157         2.70817
   C       -7.35348         2.13112         7.25795
   C       -7.96221         1.73673         8.43203
   S       -9.27506         2.81035         8.90899
   C       -7.64353         0.62504         9.27045
   C       -6.62926        -0.25514         9.03113
   C       -6.36054        -1.32532         9.93298
   C       -5.33145        -2.22249         9.72135
   C       -5.06276        -3.26826        10.61889
   N       -4.85103        -4.11969        11.36031
   C       -4.49954        -2.12202         8.59368
   N       -3.83421        -2.01799         7.66295
   C       -7.23302        -1.39721        11.07878
   C       -8.20840        -0.48911        11.22728
   O       -8.44467         0.51792        10.36666
   H       -3.42579         0.46890         3.86071
   H       -1.76527        -1.30874         3.25069
   H       -0.58299         1.27014        -0.01455
   H       -0.99579         3.42936        -0.95507
   H       -3.45088         8.92354        -2.47566
   H       -5.32886        10.60528        -1.86364
   H       -7.29085        12.26362        -1.21078
   H       -9.21069        12.48568         0.49635
   H      -10.90808        11.90063         2.59579
   H      -11.96237        10.66485         4.59661
   H      -11.63496         8.53653         6.05194
   H       -8.65513         6.71119         4.20908
   H       -6.53456         1.60263         6.80666
   H       -6.01390        -0.14235         8.15428
   H       -7.09322        -2.17953        11.80609
   H       -8.90127        -0.47499        12.05495
*
