# ORCA input file
# SCF done       -226.947764173842          0.000800469715
! CAM-B3LYP def2-SVP def2/J RIJCOSX Grid4 TightSCF
%maxcore 5000
%tddft
    Mode sTDDFT
    Ethresh 5.0
    maxcore 5000
end

%pal
  nprocs 6
  end
* xyz 0 1
   C       -1.45160        -0.38383         5.59611
   C       -0.96856        -1.35211         6.46234
   C       -1.44711        -2.65571         6.41946
   C       -2.42026        -3.03115         5.50626
   C       -2.90934        -2.07348         4.63197
   C       -2.42599        -0.74368         4.67727
   C       -3.14759         0.05821         3.70727
   C       -2.86503         1.34023         3.34232
   C       -1.71028         2.03549         3.76357
   N       -0.77039         2.64954         4.00168
   C       -3.61897         2.16478         2.47737
   N       -4.15019         2.94804         1.82751
   C       -4.22475        -0.79369         3.18740
   C       -3.89875        -2.17013         3.57513
   C       -4.30700        -3.31266         2.95044
   C       -5.05606        -3.34854         1.75688
   N       -5.61952        -3.44370         0.76107
   C       -3.94430        -4.61096         3.37560
   N       -3.69320        -5.68797         3.67871
   C       -5.34767        -0.32199         2.61862
   C       -6.54628        -1.04099         2.22730
   C       -7.03656        -0.85193         0.93537
   C       -6.40559        -0.06934        -0.14265
   O       -5.33892         0.48883        -0.11443
   N       -7.28776        -0.14776        -1.22598
   C       -8.37123        -1.00794        -0.96230
   O       -9.24023        -1.26845        -1.74638
   C       -8.19033        -1.45716         0.44300
   C       -8.94784        -2.29893         1.23744
   C       -8.49323        -2.48078         2.54005
   C       -7.33308        -1.87722         3.03765
   C       -7.05256        -2.18217         4.45143
   O       -6.13930        -1.80076         5.12607
   S       -8.32371        -3.28127         5.07968
   C       -9.20778        -3.33159         3.51208
   O      -10.20559        -3.95980         3.33922
   C       -7.17573         0.55570        -2.41663
   C       -6.31459         1.58301        -2.56019
   C       -6.14386         2.40244        -3.69832
   C       -5.29802         3.47844        -3.64700
   C       -4.99174         4.43016        -4.65657
   C       -4.12354         5.40019        -4.26228
   C       -3.69712         5.27172        -2.91572
   S       -4.42012         3.87596        -2.17273
   C       -2.84805         6.07967        -2.18387
   C       -2.17925         7.26494        -2.57175
   C       -1.43182         7.81209        -1.57853
   C       -1.47756         7.09814        -0.34386
   S       -2.50810         5.70237        -0.51139
   C       -0.70842         7.41338         0.74709
   C       -0.64193         6.78715         2.01952
   C       -1.72660         6.18470         2.70657
   C       -3.15701         6.21728         2.41249
   O       -3.76550         6.76606         1.52839
   N       -3.79608         5.49569         3.45801
   C       -2.87550         5.04629         4.40685
   O       -3.12997         4.40638         5.39449
   C       -1.56166         5.54088         3.93883
   C       -0.34989         5.46515         4.59250
   C        0.71348         6.10887         3.96596
   C        0.58650         6.75555         2.74194
   C        1.84420         7.35429         2.26270
   O        2.05534         7.95567         1.24965
   S        3.14836         7.06073         3.47107
   C        2.06140         6.15537         4.57040
   O        2.40847         5.69146         5.61245
   C       -5.15611         5.32257         3.46856
   C       -5.85672         4.78088         4.48829
   C       -7.27186         4.74045         4.48193
   C       -8.05558         4.25792         5.49130
   C       -9.45596         4.61574         5.69758
   C      -10.34936         5.01443         4.74218
   C      -10.06646         5.05439         3.35999
   N       -9.90043         5.07621         2.22444
   C      -11.68699         5.37436         5.01085
   N      -12.78052         5.68443         5.16831
   C       -9.72401         4.44015         7.11868
   C       -8.60703         3.81491         7.72061
   C       -8.59831         3.53665         9.07735
   C       -9.70725         3.89068         9.83116
   C      -10.80614         4.50070         9.24206
   C      -10.82902         4.77915         7.88331
   C       -7.62229         3.54267         6.68641
   C       -6.61746         2.61536         6.74973
   C       -6.24426         1.92835         7.92415
   N       -5.89090         1.36038         8.85619
   C       -5.94348         2.14048         5.60825
   N       -5.44535         1.66640         4.68935
   H       -1.08483         0.62845         5.65162
   H       -0.21524        -1.08483         7.18748
   H       -1.06176        -3.38793         7.11229
   H       -2.79633        -4.04130         5.49537
   H       -5.39238         0.73864         2.40573
   H       -9.83900        -2.79229         0.88391
   H       -7.87266         0.23409        -3.17852
   H       -5.68559         1.83465        -1.71777
   H       -6.68970         2.19438        -4.60732
   H       -5.42655         4.36423        -5.63835
   H       -3.78031         6.20127        -4.89206
   H       -2.27057         7.67343        -3.56210
   H       -0.84586         8.70832        -1.67696
   H        0.02131         8.19418         0.57705
   H       -0.22876         4.95760         5.53460
   H       -5.63390         5.68262         2.56503
   H       -5.32641         4.43904         5.36266
   H       -7.75683         5.24727         3.65822
   H       -7.74723         3.06793         9.54469
   H       -9.71287         3.68900        10.89137
   H      -11.65781         4.76638         9.84932
   H      -11.68929         5.25618         7.44285
*
