# ORCA input file
# SCF done       -176.832637797007          0.000591579781
! CAM-B3LYP def2-SVP def2/J RIJCOSX Grid4 TightSCF
%maxcore 5000
%tddft
    Mode sTDDFT
    Ethresh 5.0
    maxcore 5000
end

%pal
  nprocs 6
  end
* xyz 0 1
   C       -1.83424        -0.06479         0.41201
   C       -2.06946        -1.20805         1.12669
   C       -1.13200        -2.25203         1.28275
   N       -0.41374        -3.13103         1.45176
   C       -3.27902        -1.53080         1.78010
   N       -4.22922        -1.88615         2.31720
   C       -0.62571         0.23052        -0.34423
   C       -0.80371         1.45561        -1.03178
   C        0.16156         1.99267        -1.84902
   C        1.35628         1.28283        -2.00409
   C        1.52729         0.06071        -1.30947
   C        0.55560        -0.47812        -0.47680
   S        3.07623        -0.65261        -1.64318
   C        3.46535         0.67817        -2.70035
   C        2.48908         1.61189        -2.79744
  Br        5.12189         0.70866        -3.57779
   C       -2.13487         2.01456        -0.72452
   O       -2.55938         3.08362        -1.09633
   C       -2.77288         1.02794         0.19720
   C       -3.95086         1.20493         0.84140
   C       -4.90722         2.22898         0.52278
   C       -5.60799         2.89825         1.51426
   F       -5.44375         2.54049         2.79531
   C       -6.43574         4.00032         1.25472
   F       -7.04715         4.56992         2.30926
   C       -6.61020         4.52875        -0.01483
   C       -6.04497         3.76174        -1.06618
   C       -5.21345         2.62008        -0.80399
   N       -4.83026         2.01873        -1.92653
   S       -5.40369         2.84003        -3.17787
   N       -6.19441         3.97946        -2.37064
   C       -7.32326         5.74901        -0.31092
   C       -7.33677         6.94748         0.37803
   C       -8.21021         7.90706        -0.24515
   C       -8.48096         9.22534         0.11587
   C       -9.36596         9.97392        -0.64648
   C       -9.98762         9.43232        -1.78440
   C       -9.70870         8.14270        -2.16976
   C       -8.82280         7.39077        -1.40637
   S       -8.31258         5.77186        -1.74788
   C       -9.64354        11.30936        -0.27307
   N       -9.86694        12.39238         0.02867
   C       -6.52604         7.21083         1.53679
   C       -5.29774         6.66440         1.84126
   C       -4.83508         7.05623         3.09935
   C       -5.70427         7.95456         3.74287
   S       -7.10294         8.26608         2.82395
   C       -5.13177         8.32890         4.98172
   C       -3.91075         7.65305         5.13480
   C       -3.71208         6.78946         3.97431
   C       -2.74531         5.83922         3.81540
   C       -2.75532         4.91902         2.74767
   N       -2.77624         4.12688         1.91773
   C       -1.70529         5.66286         4.75179
   N       -0.84737         5.52399         5.50008
   C       -3.27005         7.95293         6.33127
   C       -3.98371         8.86398         7.10351
   S       -5.48306         9.33720         6.31721
   C       -3.58094         9.36627         8.36182
   C       -4.19212        10.28325         9.23306
   C       -3.42084        10.50644        10.41822
   C       -3.89461        11.40199        11.39983
   C       -5.08221        12.04652        11.20884
   C       -5.84062        11.82874        10.04321
   C       -5.41293        10.96806         9.07216
   C       -2.23268         9.76704        10.45061
   S       -2.07599         8.80639         9.02617
   C       -1.23931         9.75352        11.47820
   C       -0.12376         9.02138        11.45218
   H       -0.00339         2.92936        -2.35797
   H        0.73585        -1.40895         0.03435
   H        2.56295         2.49617        -3.40373
   H       -4.19866         0.58274         1.69231
   H       -8.01079         9.67778         0.97468
   H      -10.67378        10.04147        -2.35254
   H      -10.16205         7.71318        -3.04886
   H       -4.75232         6.02860         1.16690
   H       -2.32640         7.54499         6.64608
   H       -3.31537        11.57112        12.29411
   H       -5.45195        12.73335        11.95507
   H       -6.77566        12.35378         9.92005
   H       -6.00873        10.81556         8.18730
   H       -1.43996        10.39644        12.32444
   H        0.10434         8.37093        10.62402
   H        0.58860         9.05267        12.25662
*
