# ORCA input file
# SCF done       -212.680661492009          0.000640380154
! CAM-B3LYP def2-SVP def2/J RIJCOSX Grid4 TightSCF
%maxcore 5000
%tddft
    Mode sTDDFT
    Ethresh 5.0
    maxcore 5000
end

%pal
  nprocs 6
  end
* xyz 0 1
   C       -4.27242        -1.20014        -2.11011
   C       -2.91784        -1.22883        -1.90920
   C       -2.07273        -2.26377        -2.36314
   N       -1.33523        -3.07552        -2.70264
   C       -2.17300        -0.26079        -1.20229
   N       -1.49187         0.47269        -0.63939
   C       -5.04607        -2.21281        -2.81921
   C       -6.42142        -1.88533        -2.73163
   C       -7.40412        -2.65693        -3.30165
   C       -7.01166        -3.79863        -4.00793
   C       -5.63500        -4.11573        -4.09486
   C       -4.64187        -3.34249        -3.50787
   S       -5.37021        -5.56666        -5.01429
   C       -7.08814        -5.72439        -5.26640
   C       -7.82429        -4.74316        -4.69265
  Br       -7.74830        -7.16825        -6.26440
   C       -6.58129        -0.64427        -1.94797
   O       -7.62083        -0.19077        -1.52347
   C       -5.19936        -0.16836        -1.67422
   C       -4.88642         1.00025        -1.05948
   C       -5.78959         2.09347        -0.85201
   C       -5.66141         2.88603         0.29576
   O       -4.69817         2.47780         1.14423
   C       -4.12829         3.33812         2.11249
   C       -6.56444         3.95918         0.56234
   O       -6.48901         4.50903         1.81596
   C       -7.68979         4.69106         2.54397
   C       -7.49595         4.37656        -0.38861
   C       -7.60974         3.60021        -1.57011
   C       -6.76977         2.46334        -1.80217
   N       -6.98009         1.92691        -2.99998
   S       -8.15001         2.74304        -3.73982
   N       -8.42525         3.83948        -2.59278
   C       -8.28412         5.58577        -0.25649
   C       -7.77376         6.71216         0.33635
   C       -8.46068         7.91846         0.47377
   C       -9.82080         8.08052        -0.03474
   C      -10.50120         7.10279        -0.67873
   S       -9.87494         5.53921        -0.98820
   C      -10.18458         9.41374         0.29603
   C       -9.13555        10.04584         0.97160
   C       -9.46839        11.37572         1.31715
   C      -10.72153        11.70507         0.90837
   S      -11.55488        10.42888         0.08997
   C       -8.03935         9.11619         1.08928
   C       -6.77727         9.27838         1.69813
   C       -6.32874        10.38276         2.35032
   C       -5.05069        10.49473         2.97000
   C       -4.65830        11.71865         3.53094
   O       -5.49980        12.80797         3.35934
   C       -5.26817        13.48488         2.13365
   C       -3.43436        11.89555         4.21108
   O       -3.05512        13.03498         4.82323
   C       -3.99974        13.98872         5.27030
   C       -2.45452        10.88112         4.21309
   C       -2.81117         9.64028         3.63178
   C       -4.11066         9.42759         3.05557
   N       -4.26159         8.17833         2.62872
   S       -2.91005         7.34934         2.91868
   N       -2.06572         8.53816         3.60568
   C       -1.20185        11.12065         4.84387
   C        0.00684        10.53894         4.60925
   C        0.49501         9.72341         3.52341
   C        0.02829         9.71729         2.23288
   C        0.55037         8.90563         1.20766
   N        0.91232         8.24632         0.33957
   C       -0.98602        10.56950         1.75675
   N       -1.78112        11.26038         1.29766
   C        1.72398         9.08129         3.97688
   C        2.10041         9.64843         5.22038
   C        1.07771        10.63315         5.63391
   O        1.08831        11.33874         6.61758
   C        3.24703         9.28192         5.88097
   C        4.05512         8.30235         5.29287
   C        3.66210         7.73137         4.05964
   C        2.50611         8.10775         3.38613
   S        4.80059         6.53517         3.51773
   C        5.77870         6.81992         4.93292
   C        5.27934         7.75867         5.77081
  Br        7.36677         5.85039         5.17100
   H       -8.44390        -2.38437        -3.21144
   H       -3.60760        -3.62811        -3.60116
   H       -8.89608        -4.68641        -4.74868
   H       -3.88575         1.15867        -0.67949
   H       -4.71090         3.34024         3.03547
   H       -4.03242         4.35999         1.74357
   H       -3.13893         2.92360         2.30869
   H       -7.98097         5.74457         2.56235
   H       -7.48422         4.36133         3.56388
   H       -8.50634         4.09777         2.12890
   H       -6.75578         6.65913         0.69843
   H      -11.50060         7.25034        -1.05715
   H       -8.83181        12.06653         1.83824
   H      -11.22725        12.64210         1.03741
   H       -6.10640         8.43399         1.64048
   H       -6.96312        11.25074         2.44020
   H       -5.44391        12.82679         1.27729
   H       -5.97039        14.31671         2.11179
   H       -4.24234        13.86274         2.07673
   H       -3.49355        14.53630         6.06624
   H       -4.89962        13.51356         5.66318
   H       -4.27559        14.68605         4.47694
   H       -1.21901        11.83926         5.65716
   H        3.51553         9.73689         6.82152
   H        2.24424         7.64303         2.45002
   H        5.75293         8.05760         6.68807
*
