# ORCA input file
# SCF done       -223.529803882461          0.000698561255
! CAM-B3LYP def2-SVP def2/J RIJCOSX Grid4 TightSCF
%maxcore 5000
%tddft
    Mode sTDDFT
    Ethresh 5.0
    maxcore 5000
end

%pal
  nprocs 6
  end
* xyz 0 1
   C       -2.43198         0.71300        -1.88661
   C       -2.90834         1.50585        -0.87751
   C       -2.15526         1.85340         0.26345
   N       -1.57631         2.17648         1.20068
   C       -4.22802         2.00050        -0.81025
   N       -5.29809         2.38876        -0.66539
   C       -1.16190        -0.00426        -1.86513
   C       -1.23287        -1.08088        -2.79719
   C       -0.19561        -1.95224        -2.96579
   C        0.98362        -1.77525        -2.20765
   C        1.06865        -0.68793        -1.29048
   C       -0.02421         0.19424        -1.12988
   C        2.25526        -0.51637        -0.54888
   C        3.30663        -1.37853        -0.70085
   C        3.22118        -2.45032        -1.60211
   C        2.08464        -2.64448        -2.33901
   C       -2.53240        -1.03944        -3.49170
   O       -2.97171        -1.82061        -4.30368
   C       -3.18230         0.22263        -3.02969
   C       -4.21442         0.74205        -3.73405
   C       -4.74176         2.08148        -3.68645
   C       -3.90486         3.17643        -3.41841
   C       -4.43748         4.43971        -3.35211
   C       -5.80989         4.63348        -3.59616
   C       -6.63912         3.56347        -3.90198
   C       -6.09890         2.29625        -3.95386
   C       -6.10324         6.04354        -3.48123
   C       -4.91701         6.72389        -3.15301
   C       -3.74873         5.76141        -3.07304
   C       -3.15611         5.82360        -1.64843
   C       -1.85835         5.05908        -1.42109
   C       -2.71805         6.00753        -4.19540
   C       -2.02129         7.36209        -4.16799
   C       -4.94078         8.07649        -2.91257
   C       -6.14262         8.78745        -3.05510
   C       -7.30636         8.09720        -3.42326
   C       -7.30028         6.73257        -3.62168
   C       -6.22410        10.21033        -2.83029
   C       -5.23229        10.99786        -2.37122
   C       -5.38843        12.39863        -2.15332
   C       -4.49459        13.32225        -1.61164
   C       -3.10394        13.03750        -1.23609
   O       -2.66279        11.92027        -1.14767
   O       -2.30857        14.10053        -1.02313
   C       -5.23181        14.54705        -1.64076
   N       -6.41558        14.34869        -2.16380
   O       -6.52117        13.03600        -2.47933
   C       -4.86034        15.87401        -1.14934
   C       -5.08649        16.99241        -1.95442
   C       -4.77216        18.23831        -1.46348
   C       -4.25024        18.38465        -0.16659
   C       -4.03439        17.27668         0.63791
   C       -4.33861        16.02285         0.13857
   C       -4.04936        19.79598         0.09103
   C       -4.43876        20.51744        -1.05100
   C       -4.92110        19.58212        -2.13474
   C       -4.03888        19.67854        -3.39432
   C       -2.56368        19.42383        -3.10828
   C       -6.38826        19.86327        -2.50990
   C       -7.33295        19.77087        -1.31775
   C       -4.35620        21.88698        -1.06880
   C       -3.89694        22.57412         0.06922
   C       -3.51100        21.83652         1.20008
   C       -3.57927        20.45928         1.21635
   C       -3.84898        24.01030         0.02818
   C       -3.58094        24.84040         1.06594
   C       -3.58236        26.24610         0.90417
   C       -3.36797        27.14931         1.90618
   C       -3.37307        28.59581         1.78603
   C       -3.49957        29.32883         0.63364
   C       -3.48683        30.73858         0.58662
   N       -3.48471        31.88127         0.47360
   C       -3.64781        28.80347        -0.66647
   N       -3.76935        28.46140        -1.75661
   C       -3.19851        29.15362         3.12307
   C       -3.04949        28.08172         4.04828
   C       -3.12963        26.79814         3.32961
   O       -3.02533        25.69117         3.81803
   C       -2.87266        28.29906         5.38401
   C       -2.83913        29.62593         5.86798
   C       -2.98886        30.70477         4.94980
   C       -3.16795        30.44802         3.57112
   C       -2.95701        32.02514         5.44303
   C       -2.78652        32.26980         6.77839
   C       -2.63964        31.20650         7.68166
   C       -2.66486        29.91279         7.23603
   H       -0.27233        -2.76664        -3.67079
   H        0.06938         1.01505        -0.43577
   H        2.31469         0.30808         0.14643
   H        4.21040        -1.23994        -0.12660
   H        4.06052        -3.12098        -1.70966
   H        2.01317        -3.46779        -3.03467
   H       -4.65882         0.07248        -4.46430
   H       -2.84476         3.00567        -3.30479
   H       -7.68898         3.71977        -4.09719
   H       -6.72887         1.44648        -4.17091
   H       -3.91780         5.44040        -0.96386
   H       -2.98798         6.87111        -1.39347
   H       -1.97406         4.00258        -1.64350
   H       -1.57196         5.14494        -0.37499
   H       -1.04833         5.45605        -2.02716
   H       -3.23829         5.89927        -5.15156
   H       -1.96924         5.21545        -4.14379
   H       -2.71925         8.16282        -4.39526
   H       -1.23663         7.37845        -4.92186
   H       -1.56566         7.55711        -3.20136
   H       -4.04834         8.59975        -2.61201
   H       -8.22815         8.65005        -3.53383
   H       -8.20963         6.21008        -3.87715
   H       -7.18301        10.66754        -3.04201
   H       -4.25594        10.62205        -2.10854
   H       -2.78076        14.94515        -1.09057
   H       -5.50635        16.85659        -2.93884
   H       -3.64600        17.38418         1.63874
   H       -4.20638        15.15147         0.76471
   H       -4.15628        20.67448        -3.82586
   H       -4.39742        18.95280        -4.12707
   H       -2.17901        20.14658        -2.39212
   H       -1.98605        19.50888        -4.02557
   H       -2.41487        18.42608        -2.70097
   H       -6.69724        19.14535        -3.27198
   H       -6.45054        20.86218        -2.94641
   H       -7.31238        18.77238        -0.88699
   H       -8.35099        19.98711        -1.63242
   H       -7.05254        20.48486        -0.54623
   H       -4.65210        22.44894        -1.94314
   H       -3.14637        22.35561         2.07203
   H       -3.27504        19.90785         2.09312
   H       -4.07160        24.45680        -0.93515
   H       -3.37288        24.45662         2.05206
   H       -3.78253        26.61383        -0.09436
   H       -2.76198        27.46740         6.06411
   H       -3.28076        31.28753         2.90386
   H       -3.07032        32.84042         4.74352
   H       -2.76408        33.28465         7.14642
   H       -2.50674        31.41766         8.73226
   H       -2.55243        29.08986         7.92682
*
