# ORCA input file
# SCF done       -230.745767880749          0.000814851037
! CAM-B3LYP def2-SVP def2/J RIJCOSX Grid4 TightSCF
%maxcore 5000
%tddft
    Mode sTDDFT
    Ethresh 5.0
    maxcore 5000
end

%pal
  nprocs 6
  end
* xyz 0 1
   C        6.03165         0.25782         3.50018
   C        6.40745         1.45907         2.90249
   C        6.49540         2.73806         3.68506
   O        6.32824         3.80638         3.16933
   O        6.76963         2.63075         4.98945
   C        6.66134         1.52019         1.52197
   C        7.07125         2.71973         0.88550
   N        7.44257         3.61034         0.26846
   C        6.54105         0.37448         0.73018
   C        6.17134        -0.80379         1.34037
   C        5.92248        -0.88333         2.71975
   C        5.55534        -2.26042         3.05065
   C        5.23760        -2.69609         4.31259
   C        5.31964        -1.87844         5.45911
   N        5.40284        -1.25585         6.42033
   C        4.79809        -3.98808         4.67404
   N        4.40900        -4.99665         5.06155
   C        5.58669        -3.03579         1.82218
   C        5.95161        -2.12855         0.71699
   O        6.07775        -2.36412        -0.46812
   C        5.39969        -4.39696         1.78798
   C        5.37494        -5.30739         0.71735
   C        5.39790        -5.13640        -0.64929
   C        5.36574        -6.33061        -1.38003
   C        5.25955        -7.48439        -0.53950
   S        5.27594        -7.01623         1.13623
   C        5.15517        -8.76554        -1.05100
   S        5.05251       -10.25386        -0.10331
   C        3.95307        -9.83495         1.28296
   C        5.19140        -8.90569        -2.45362
   C        5.32844        -7.76363        -3.28127
   C        5.43060        -6.48039        -2.78052
   S        5.59591        -5.14607        -3.91918
   C        6.97230        -4.16290        -3.23252
   S        5.38376        -8.19845        -4.96218
   C        5.23094        -9.89761        -4.55955
   C        5.13566       -10.09549        -3.20426
   C        5.23367       -10.88115        -5.59645
   C        5.20012       -12.23107        -5.34064
   C        5.23431       -13.22450        -6.31584
   C        5.31956       -12.89306        -7.74035
   C        5.35369       -11.62977        -8.22045
   S        5.30924       -10.23357        -7.22824
   C        5.36169       -14.14380        -8.41241
   C        5.31302       -15.18995        -7.48504
   C        5.33945       -16.45029        -8.12482
   C        5.41153       -16.32906        -9.47612
   S        5.44763       -14.69323       -10.03662
   C        5.23195       -14.62683        -6.16149
   C        5.15387       -15.28844        -4.91619
   C        5.27436       -16.62038        -4.68539
   C        5.16782       -17.19953        -3.39707
   C        5.32500       -18.52071        -3.06498
   C        5.14027       -18.79968        -1.69679
   C        4.82393       -17.63188        -0.94871
   S        4.78181       -16.23140        -1.98661
   C        4.55560       -17.67952         0.40494
   S        4.12447       -16.30191         1.41853
   C        5.22864       -14.97281         0.85392
   C        4.60489       -18.94718         1.02456
   C        4.95075       -20.11296         0.28362
   C        5.20685       -20.06217        -1.07450
   S        5.66386       -21.42997        -2.09250
   C        4.66672       -22.81459        -1.46599
   S        5.01095       -21.50222         1.33061
   C        4.59833       -20.53416         2.73371
   C        4.40378       -19.21686         2.38584
   C        4.44571       -21.18025         3.97526
   C        4.32774       -20.65101         5.23005
   C        3.74735       -21.50126         6.29898
   O        3.55201       -22.69341         6.26324
   C        3.40839       -20.56290         7.39647
   C        3.85577       -19.27146         7.06070
   C        3.58235       -18.20853         7.90202
   C        2.89384       -18.43460         9.09499
   C        2.48364       -19.73559         9.43438
   C        2.73440       -20.80985         8.56977
   C        1.78924       -20.03457        10.63000
   N        1.24090       -20.32823        11.59454
   C        2.59165       -17.20443         9.91050
   O        2.54290       -16.12601         9.38859
   O        2.39537       -17.34090        11.22291
   C        4.57274       -19.34023         5.78513
   C        5.50015       -18.42147         5.36784
   C        6.37521       -18.62700         4.28190
   N        7.12994       -18.75779         3.42705
   C        5.76337       -17.20390         6.03053
   N        6.02432       -16.19812         6.51673
   H        5.79330         0.22673         4.55212
   H        6.89689         1.72379         5.30021
   H        6.72799         0.41255        -0.33228
   H        5.26660        -4.87722         2.75000
   H        5.41192        -4.16377        -1.09919
   H        3.52298       -10.77879         1.60425
   H        3.17110        -9.17011         0.93286
   H        4.51215        -9.38744         2.09850
   H        6.60368        -3.30921        -2.67340
   H        7.54388        -3.82136        -4.09030
   H        7.58439        -4.80160        -2.60581
   H        5.03222       -11.05607        -2.73529
   H        5.15816       -12.53256        -4.30470
   H        5.41451       -11.40986        -9.27463
   H        5.30120       -17.40444        -7.63300
   H        5.44602       -17.11726       -10.20264
   H        4.98789       -14.65382        -4.05366
   H        5.47610       -17.30832        -5.49159
   H        5.56633       -19.28191        -3.78437
   H        4.78971       -14.43377         0.02038
   H        6.18854       -15.39898         0.58423
   H        5.34216       -14.31045         1.70673
   H        4.58552       -23.50872        -2.29705
   H        3.68375       -22.45260        -1.18523
   H        5.15994       -23.29664        -0.62798
   H        4.07538       -18.45966         3.07452
   H        4.32774       -22.25927         3.93315
   H        3.86476       -17.19415         7.66608
   H        2.40121       -21.80617         8.81837
   H        2.40060       -18.25119        11.55413
*
