# ORCA input file
# SCF done       -186.045157176930          0.000817047749
! CAM-B3LYP def2-SVP def2/J RIJCOSX Grid4 TightSCF
%maxcore 5000
%tddft
    Mode sTDDFT
    Ethresh 5.0
    maxcore 5000
end

%pal
  nprocs 6
  end
* xyz 0 1
   C        0.08092        -2.12583         3.16202
   O        0.09871        -3.33273         3.07945
   C       -1.05781        -1.27587         3.49308
   C       -0.72943         0.07161         3.42324
   C       -1.82143         0.91058         3.71999
   C       -2.93601         0.17661         3.99990
   S       -2.69392        -1.52857         3.91340
   C        0.66688         0.19620         3.06073
   C        1.33967         1.38572         2.97031
   C        0.68786         2.61889         3.18937
   N        0.17812         3.63254         3.35897
   C        2.70939         1.55490         2.68350
   N        3.81489         1.78203         2.47192
   C        1.18678        -1.15555         2.87880
   C        2.43434        -1.43764         2.40617
   C        3.11223        -2.67438         2.26467
   C        4.22311        -2.82422         1.45999
   C        4.67643        -4.17764         1.53486
   C        3.77575        -4.82383         2.48873
   C        2.85056        -3.95650         2.92721
   F        3.90207        -6.10412         2.85898
   C        5.71493        -4.76775         0.85358
   C        6.15771        -6.11678         0.91980
   C        7.21732        -6.29232         0.05159
   C        7.48342        -5.00805        -0.61064
   C        6.59992        -4.12379        -0.12818
   F        6.50154        -2.83721        -0.47199
   C        7.91393        -7.50064        -0.14754
   C        8.94308        -7.68433        -1.02318
   C        9.63079        -8.90398        -1.18526
   S        9.24349       -10.31027        -0.23916
   C       10.49126       -11.24710        -1.01139
   C       11.15095       -10.48867        -1.98187
   C       10.67676        -9.17957        -2.07001
   C       11.21906        -8.17131        -3.03525
   C       12.53893        -8.64905        -3.65743
   C       12.87045        -7.79934        -4.78023
   N       13.09168        -7.12161        -5.67221
   C       12.39599       -10.11657        -4.11014
   C       13.56348       -10.53099        -4.85729
   N       14.49735       -10.86370        -5.42374
   C       12.22518       -11.01705        -2.87801
   C       10.70612       -12.57932        -0.59070
   C       11.77442       -13.41711        -0.83458
   C       11.56018       -14.65090        -0.15549
   C       10.25942       -14.50928         0.50487
   C        9.75264       -13.29131         0.26766
   F        9.69082       -15.47731         1.22807
   C       12.40119       -15.73695        -0.08676
   C       12.21473       -16.95496         0.62986
   C       13.32185       -17.75652         0.45475
   C       14.26794       -17.05087        -0.41648
   C       13.71446       -15.86938        -0.72466
   F       14.24884       -14.91969        -1.50218
   C       13.51451       -19.02140         1.05728
   C       14.59269       -19.82772         0.86544
   C       14.76079       -21.10708         1.45536
   C       14.25918       -21.61449         2.61350
   C       14.26348       -23.10532         2.79508
   O       14.84425       -23.91007         2.10546
   C       13.38540       -23.31814         3.93810
   C       12.98022       -22.10842         4.49231
   C       13.60908       -21.01838         3.76840
   C       13.72668       -19.74171         4.25114
   C       13.08745       -19.33832         5.44249
   N       12.55587       -18.99215         6.39836
   C       14.53053       -18.73362         3.68517
   N       15.19507       -17.88470         3.29199
   C       12.13433       -22.27799         5.60434
   C       11.91887       -23.60174         5.85368
   S       12.73691       -24.66308         4.76954
   H       -1.79691         1.98425         3.72580
   H       -3.90821         0.54860         4.25833
   H        3.01885        -0.59263         2.05836
   H        4.66275        -2.06023         0.84817
   H        2.06369        -4.14809         3.62661
   H        5.72985        -6.87449         1.54618
   H        8.24650        -4.82042        -1.33961
   H        7.59040        -8.34224         0.45300
   H        9.26880        -6.86130        -1.64261
   H       11.38342        -7.21554        -2.53147
   H       10.48420        -7.99954        -3.83051
   H       13.34984        -8.58075        -2.92169
   H       11.52005       -10.20611        -4.76511
   H       13.17354       -11.06551        -2.33174
   H       11.97667       -12.03179        -3.19738
   H       12.66213       -13.19173        -1.38710
   H        8.81961       -12.88980         0.61227
   H       11.35222       -17.19404         1.22074
   H       15.22585       -17.41420        -0.72969
   H       12.70599       -19.36416         1.69170
   H       15.34583       -19.53543         0.14768
   H       15.33478       -21.82464         0.87460
   H       11.70298       -21.48251         6.18299
   H       11.31632       -24.02296         6.63463
*
