# ORCA input file
# SCF done       -205.276260696485          0.000443727417
! CAM-B3LYP def2-SVP def2/J RIJCOSX Grid4 TightSCF
%maxcore 5000
%tddft
    Mode sTDDFT
    Ethresh 5.0
    maxcore 5000
end

%pal
  nprocs 6
  end
* xyz 0 1
   C        4.13206        -2.54951         0.25276
   C        3.35543        -1.70658        -0.52962
   F        3.49525        -0.38365        -0.38795
   C        2.43722        -2.20177        -1.45488
   F        1.70973        -1.35265        -2.19108
   C        2.27150        -3.56742        -1.61927
   C        3.04455        -4.40353        -0.83889
   C        3.97239        -3.91684         0.09316
   C        4.62185        -5.05910         0.73837
   C        5.64393        -4.94949         1.64780
   C        6.16227        -3.71916         2.10594
   N        6.63248        -2.76064         2.52783
   C        6.36123        -6.00425         2.25157
   N        7.01457        -6.78359         2.78688
   C        4.02670        -6.27200         0.20458
   C        3.05148        -5.88131        -0.82519
   O        2.35635        -6.57489        -1.54700
   C        4.34274        -7.52333         0.69647
   C        3.96141        -8.82790         0.34242
   C        3.16125        -9.21464        -0.71961
   C        2.83927       -10.52011        -1.03378
   C        3.32655       -11.65612        -0.24431
   C        4.12358       -11.53225         0.84174
   S        4.67609       -10.02995         1.44320
   C        2.78320       -12.80370        -0.87319
   C        2.00258       -12.42886        -1.97888
   C        1.47212       -13.56550        -2.63827
   C        1.84265       -14.72230        -2.03425
   S        2.85130       -14.50175        -0.64284
   C        2.02177       -10.99971        -2.09164
   C        1.39044       -10.15811        -3.04100
   C        0.49836       -10.57088        -3.97433
   C       -0.14660        -9.76238        -4.95294
   N       -0.87119       -10.33343        -5.96423
   C       -1.03411       -11.72681        -6.28117
   C        0.23149       -12.32078        -6.89707
   N       -1.38897        -9.42794        -6.77453
   C       -1.03687        -8.23618        -6.30269
   C       -0.25473        -8.37396        -5.14605
   C        0.32893        -7.26108        -4.34504
   C        1.74597        -6.92170        -4.81580
   C       -1.48420        -6.99793        -7.00209
   C       -2.99458        -6.77131        -6.81190
   C       -3.49234        -5.70229        -7.71558
   C       -4.16216        -4.61375        -7.32549
   C       -4.65972        -3.58554        -8.20378
   C       -5.44463        -2.56106        -7.73730
   C       -5.97088        -1.53598        -8.52667
   C       -5.59691        -1.40016        -9.93558
   C       -4.84876        -2.30624       -10.60583
   S       -4.21896        -3.72769        -9.89233
   C       -6.16745        -0.17073       -10.37062
   C       -6.85211         0.42526        -9.31461
   C       -7.44454         1.65055        -9.68654
   C       -7.19480         1.94857       -10.98958
   S       -6.24393         0.76129       -11.81307
   C       -6.77248        -0.43458        -8.15751
   C       -7.39747        -0.15614        -6.93084
   C       -7.76428        -1.05810        -5.96644
   C       -8.38209        -0.69983        -4.75727
   C       -8.34528         0.51214        -4.10785
   C       -9.41783         0.86575        -3.15521
   O      -10.27413         0.13683        -2.70499
   C       -9.25282         2.32007        -2.90780
   C       -8.09502         2.77353        -3.56306
   C       -7.74494         4.11211        -3.50975
   C       -8.56837         4.97045        -2.79519
   C       -9.70860         4.51148        -2.13772
   C      -10.06447         3.17248        -2.18733
   F      -10.47240         5.37520        -1.45430
   F       -8.25883         6.27253        -2.74366
   C       -7.44140         1.62921        -4.20421
   C       -6.11749         1.59198        -4.57396
   C       -5.44497         0.40945        -4.93444
   N       -4.83997        -0.53430        -5.18572
   C       -5.26573         2.71241        -4.56417
   N       -4.54051         3.60220        -4.60043
   H        4.82410        -2.11183         0.95263
   H        1.56062        -3.95644        -2.33077
   H        5.02390        -7.51066         1.53972
   H        2.76669        -8.41705        -1.33195
   H        4.46741       -12.38360         1.40845
   H        0.85649       -13.55403        -3.51875
   H        1.58420       -15.72255        -2.32251
   H        1.66081        -9.11631        -2.99063
   H        0.23310       -11.61685        -3.99503
   H       -1.85486       -11.77806        -6.99961
   H       -1.32353       -12.27844        -5.38120
   H        0.48411       -11.78677        -7.80949
   H        0.06952       -13.36768        -7.13935
   H        1.07215       -12.24428        -6.21090
   H        0.34884        -7.52545        -3.28704
   H       -0.30317        -6.37655        -4.44982
   H        2.37118        -7.81194        -4.82585
   H        2.19613        -6.19448        -4.14570
   H        1.72521        -6.51033        -5.82274
   H       -1.27965        -7.11274        -8.06877
   H       -0.93101        -6.13370        -6.63472
   H       -3.20959        -6.52986        -5.76961
   H       -3.49973        -7.70935        -7.06082
   H       -3.27863        -5.85335        -8.76664
   H       -4.38240        -4.46173        -6.27705
   H       -5.62775        -2.52688        -6.67319
   H       -4.60108        -2.19635       -11.64982
   H       -8.02116         2.28228        -9.03538
   H       -7.51614         2.81219       -11.53825
   H       -7.69525         0.87691        -6.78717
   H       -7.69711        -2.11402        -6.18537
   H       -9.03309        -1.43695        -4.29818
   H       -6.87404         4.51228        -4.00294
   H      -10.94664         2.81664        -1.67961
*
