# ORCA input file
# SCF done       -212.521210480125          0.000518894821
! CAM-B3LYP def2-SVP def2/J RIJCOSX Grid4 TightSCF
%maxcore 5000
%tddft
    Mode sTDDFT
    Ethresh 5.0
    maxcore 5000
end

%pal
  nprocs 6
  end
* xyz 0 1
   C       -4.49017        -3.20711        -2.24709
   C       -5.72502        -3.80572        -2.04885
   F       -6.83324        -3.07764        -2.22766
   C       -5.84038        -5.14401        -1.67100
   F       -7.05404        -5.67922        -1.48839
   C       -4.71065        -5.92326        -1.48575
   C       -3.48163        -5.32640        -1.68712
   C       -3.35410        -3.98101        -2.06138
   C       -1.93232        -3.66610        -2.18178
   C       -1.43376        -2.41033        -2.40890
   C       -2.23807        -1.26664        -2.60747
   N       -2.82875        -0.29807        -2.78138
   C       -0.07267        -2.03546        -2.45128
   N        0.99615        -1.61551        -2.48894
   C       -1.17709        -4.89216        -1.94753
   C       -2.14285        -5.94673        -1.56407
   O       -1.94797        -7.09635        -1.23000
   C        0.16979        -4.97018        -2.18420
   C        1.15565        -5.98678        -2.01120
   C        0.95495        -7.20142        -1.32704
   C        1.99249        -8.08813        -1.21183
   C        3.25854        -7.80854        -1.76173
   C        3.47675        -6.60761        -2.43143
   C        2.43697        -5.71506        -2.54316
   C        4.13629        -8.91657        -1.48124
   C        3.41698        -9.88821        -0.75886
   C        1.99538        -9.43464        -0.52842
   C        1.68214        -9.29879         0.97349
   C        2.64480        -8.36539         1.69776
   C        0.97894       -10.39060        -1.18046
   C        1.23241       -10.59826        -2.66867
   C        4.02161       -11.05111        -0.35572
   C        5.37421       -11.27650        -0.66084
   C        6.07569       -10.30055        -1.38637
   C        5.47155        -9.13139        -1.79753
   C        6.01505       -12.49148        -0.22436
   N        7.38725       -12.62613        -0.17206
   C        7.68505       -13.86817         0.29370
   C        8.73188       -14.72342         0.63321
   C        8.13610       -15.91473         1.05484
   N        6.76257       -15.79070         0.97174
   C        6.46493       -14.54617         0.51683
   C        5.41956       -13.67964         0.19775
   C        8.72015       -17.12585         1.52067
   C       10.04048       -17.32869         1.71554
   C       10.65889       -18.53692         2.19950
   C       12.02370       -18.50215         2.53451
   C       12.64091       -19.62822         3.01715
   C       11.92243       -20.82847         3.16720
   C       10.57647       -20.88266         2.82717
   C        9.96069       -19.74523         2.35184
   C       12.81058       -21.83659         3.69184
   C       14.08465       -21.26147         3.86871
   C       14.07730       -19.81091         3.44788
   C       15.05054       -19.56461         2.27884
   C       14.70335       -20.37357         1.03508
   C       14.43559       -18.88416         4.62463
   C       13.51950       -19.07334         5.82784
   C       15.12200       -22.00206         4.36885
   C       14.90742       -23.34895         4.71688
   C       13.62337       -23.89755         4.56757
   C       12.58390       -23.16217         4.04212
   C       15.94514       -24.15572         5.28649
   C       17.29506       -24.03704         5.16938
   C       18.17748       -24.68748         6.17273
   O       17.86495       -25.51843         6.99234
   C       19.50486       -24.05483         5.98546
   C       19.46164       -23.19508         4.87349
   C       20.58370       -22.46612         4.51324
   C       21.72875       -22.61611         5.28097
   C       21.76735       -23.47822         6.37766
   C       20.64926       -24.21121         6.74233
   F       22.89660       -23.59504         7.08676
   F       22.82027       -21.91176         4.96143
   C       18.13556       -23.28233         4.26320
   C       17.83384       -22.93748         2.97248
   C       16.63259       -23.30263         2.33037
   N       15.70400       -23.62073         1.73574
   C       18.70981       -22.24141         2.11558
   N       19.37303       -21.64423         1.39369
   H       -4.45840        -2.17119        -2.54104
   H       -4.79233        -6.95859        -1.19554
   H        0.59286        -4.06861        -2.61317
   H       -0.00684        -7.42713        -0.90180
   H        4.44442        -6.37796        -2.85139
   H        2.59750        -4.77681        -3.05495
   H        1.72649       -10.28947         1.43055
   H        0.66249        -8.92463         1.08151
   H        3.66725        -8.72873         1.61802
   H        2.38329        -8.30361         2.75149
   H        2.60241        -7.36415         1.27466
   H       -0.02212        -9.97966        -1.03872
   H        1.02494       -11.35320        -0.66688
   H        1.16215        -9.65464        -3.20504
   H        0.49369       -11.28164        -3.08059
   H        2.22208       -11.01769        -2.83801
   H        3.47407       -11.78751         0.21075
   H        7.10810       -10.47220        -1.65421
   H        6.02981        -8.39699        -2.35881
   H        8.04414       -11.89303        -0.37273
   H        9.78384       -14.52960         0.58253
   H        6.10937       -16.51122         1.22656
   H        4.36870       -13.88306         0.23566
   H        8.01568       -17.91721         1.74232
   H       10.71856       -16.50949         1.51864
   H       12.57304       -17.57900         2.41540
   H       10.02044       -21.80244         2.93103
   H        8.91791       -19.79292         2.07913
   H       16.06203       -19.81680         2.60626
   H       15.03837       -18.50038         2.03329
   H       14.69550       -21.43928         1.25267
   H       15.44026       -20.19036         0.25657
   H       13.72333       -20.09343         0.65560
   H       14.37453       -17.84866         4.28373
   H       15.46939       -19.07633         4.92017
   H       12.48620       -18.86503         5.55927
   H       13.81002       -18.39765         6.62894
   H       13.57746       -20.09375         6.20065
   H       16.08781       -21.55063         4.54485
   H       13.46689       -24.92942         4.84561
   H       11.60841       -23.60609         3.91443
   H       15.62016       -24.93406         5.97083
   H       20.59940       -21.78790         3.67549
   H       20.67823       -24.87816         7.58913
*
