# ORCA input file
# SCF done       -163.098911735640          0.000259539941
! CAM-B3LYP def2-SVP def2/J RIJCOSX Grid4 TightSCF
%maxcore 5000
%tddft
    Mode sTDDFT
    Ethresh 5.0
    maxcore 5000
end

%pal
  nprocs 6
  end
* xyz 0 1
   C        1.57084        -0.95296        -8.99922
   C        0.95387        -0.88833       -10.18850
   C        0.12928         0.33090       -10.21429
   C       -0.62408         0.74402       -11.32057
   N       -1.23839         1.07279       -12.23263
   C        0.24123         0.96086        -9.01704
   C        1.14376         0.18532        -8.18733
   C        1.55503         0.44900        -6.91427
   C        1.10245         1.51118        -6.00280
   C        1.93991         1.53559        -4.93830
   C        2.93174         0.47835        -5.10327
   C        2.67473        -0.19307        -6.25923
   C        3.95944         0.22169        -4.18493
   N        4.79403         0.02005        -3.42372
   C       -0.09550         2.32193        -6.10712
   C       -1.33836         1.85600        -6.41484
   F       -1.65104         0.60820        -6.76487
   S       -2.60628         3.02769        -6.26587
   C       -1.41621         4.17573        -5.74640
   F       -1.81354         5.41489        -5.44919
   C       -0.14155         3.69914        -5.69832
   C        1.04257         4.47835        -5.37781
   C        1.15108         5.38521        -4.39897
   C        0.18429         5.62965        -3.35201
   C       -0.00196         6.92891        -2.84891
   C       -0.95609         7.21613        -1.80871
   N       -1.04254         8.46787        -1.30356
   C       -0.34456         9.42494        -1.85916
   C        0.53095         9.14989        -2.97242
   N        0.70899         7.93368        -3.40265
   C        1.23613        10.22789        -3.56635
   N        1.77433        11.13750        -4.00665
   C       -0.38608        10.73843        -1.33204
   N       -0.37609        11.82318        -0.95940
   C       -1.79644         6.22205        -1.28382
   C       -1.59337         4.91976        -1.75701
   C       -0.59449         4.62171        -2.76001
   N       -0.55351         3.31052        -3.03062
   S       -1.66137         2.55905        -2.15239
   N       -2.26018         3.82195        -1.38370
   C       -2.83093         6.55355        -0.31844
   C       -3.15257         5.81967         0.78436
   F       -2.57312         4.69767         1.19113
   S       -4.37138         6.53135         1.78928
   C       -4.44142         7.86761         0.68558
   F       -5.31388         8.84796         0.90781
   C       -3.60260         7.76780        -0.38134
   C       -3.44592         8.72637        -1.45459
   C       -3.48439        10.06531        -1.28482
   C       -3.10279        10.99329        -2.29640
   C       -2.51760        10.69857        -3.50009
   C       -2.01583        11.91833        -4.09154
   C       -1.37928        11.96670        -5.34096
   N       -0.88031        11.97503        -6.37384
   C       -2.26343        12.96063        -3.24280
   C       -3.00668        12.45936        -2.11620
   C       -3.57242        13.24697        -1.15450
   C       -3.28583        14.66927        -0.96892
   C       -3.99994        15.12196         0.07229
   C       -4.82525        14.01451         0.57870
   C       -4.55800        12.89825        -0.14929
   C       -5.73374        14.13792         1.63710
   N       -6.47286        14.25626         2.50757
   H        2.23115        -1.72588        -8.65837
   H        1.02255        -1.57570       -11.01056
   H       -0.20628         1.89683        -8.74629
   H        1.87224         2.18148        -4.08340
   H        3.24204        -1.00947        -6.66124
   H        1.88198         4.31405        -6.04052
   H        2.02815         6.01598        -4.35991
   H       -3.30570         8.29996        -2.43843
   H       -3.65001        10.45630        -0.29367
   H       -2.42303         9.73550        -3.96853
   H       -2.01393        13.98820        -3.41853
   H       -2.57145        15.22146        -1.54633
   H       -4.00600        16.10876         0.49561
   H       -5.04971        11.95114        -0.04458
*
