# ORCA input file
# SCF done       -198.089327683849          0.000724835505
! CAM-B3LYP def2-SVP def2/J RIJCOSX Grid4 TightSCF
%maxcore 5000
%tddft
    Mode sTDDFT
    Ethresh 5.0
    maxcore 5000
end

%pal
  nprocs 6
  end
* xyz 0 1
   C       -7.51781        -3.58912         6.48684
   C       -6.69906        -2.80026         7.28249
   C       -5.39271        -2.52123         6.91014
   C       -4.86773        -3.01800         5.72637
   C       -5.67321        -3.81302         4.92910
   C       -7.00274        -4.10324         5.30802
   C       -7.59957        -4.97268         4.30040
   C       -8.91063        -5.37266         4.26984
   C       -9.88183        -4.96612         5.20932
   N      -10.72551        -4.67354         5.93073
   C       -9.50041        -6.20440         3.29572
   N      -10.05498        -6.87391         2.54488
   C       -6.53950        -5.32994         3.36836
   C       -5.41066        -4.45818         3.65082
   C       -4.42279        -4.08524         2.77176
   C       -4.33465        -4.53040         1.43806
   N       -4.23560        -4.82614         0.33280
   C       -3.41528        -3.14603         3.06760
   N       -2.55096        -2.41266         3.25225
   C       -6.63437        -6.34866         2.44784
   C       -5.58367        -7.06682         1.83589
   C       -4.31573        -7.19775         2.38146
   C       -3.27441        -7.91043         1.81707
   C       -3.48372        -8.70307         0.59856
   C       -4.64959        -8.75431        -0.08680
   S       -6.05441        -7.88899         0.35486
   C       -2.26004        -9.38532         0.37056
   C       -1.33786        -9.04513         1.36527
   C       -0.09681        -9.69648         1.18351
   C       -0.11150       -10.49727         0.08709
   S       -1.61737       -10.49258        -0.77106
   C       -1.93689        -8.10154         2.26542
   C       -1.22465        -7.50174         3.32183
   C       -1.58705        -6.38575         4.02158
   C       -0.87860        -5.80422         5.08464
   S       -1.51091        -4.34733         5.81918
   C       -0.22140        -4.19442         6.97750
   C        0.69722        -5.24557         6.78531
   C        0.30292        -6.14217         5.74186
   N        1.23469        -7.12275         5.64416
   C        2.19118        -6.88926         6.59608
   N        3.24926        -7.78787         6.77528
   O        3.30358        -8.73913         6.01123
   O        4.03072        -7.57158         7.68611
   C        1.91116        -5.73726         7.30533
   C       -0.25928        -3.18848         7.96201
   C        0.66819        -3.13834         8.99050
   C        0.61282        -2.28168        10.07220
   C       -0.32636        -1.15897        10.09517
   C       -1.30176        -0.97979         9.17511
   S       -1.59042        -2.05211         7.86678
   C        0.01303        -0.40335        11.25286
   C        1.04611        -1.03768        11.94578
   C        1.39692        -0.34911        13.12657
   C        0.64222         0.76900        13.29271
   S       -0.52393         1.02500        12.03912
   C        1.40935        -2.24804        11.25296
   C        2.23863        -3.23900        11.79314
   C        2.32654        -4.53750        11.34672
   C        3.07313        -5.52497        11.98388
   C        3.14153        -6.86327        11.64286
   C        4.17068        -7.74645        12.17148
   C        4.92826        -7.55880        13.29911
   C        4.82145        -6.47796        14.19889
   N        4.79013        -5.64334        14.98816
   C        5.90236        -8.46966        13.75962
   N        6.70667        -9.15998        14.20092
   C        4.22832        -8.90775        11.29703
   C        3.17182        -8.81952        10.36471
   C        2.99206        -9.82008         9.42386
   C        3.88476       -10.88067         9.39502
   C        4.93164       -10.95572        10.30028
   C        5.10853        -9.97615        11.26619
   C        2.41472        -7.59953        10.62659
   C        1.18393        -7.33541        10.06506
   C        0.61794        -8.07728         9.00981
   N        0.10352        -8.55630         8.09880
   C        0.24227        -6.35003        10.42248
   N       -0.62423        -5.62037        10.62320
   H       -8.52947        -3.79558         6.79423
   H       -7.08896        -2.40185         8.20661
   H       -4.77029        -1.91172         7.54712
   H       -3.85030        -2.79483         5.45123
   H       -7.62827        -6.68595         2.18574
   H       -4.17552        -6.75026         3.35461
   H       -4.76531        -9.35066        -0.97826
   H        0.76059        -9.58841         1.82248
   H        0.68543       -11.10887        -0.28836
   H       -0.27232        -7.96199         3.54635
   H       -2.47605        -5.84670         3.73388
   H        1.21112        -7.96655         5.09374
   H        2.54868        -5.34298         8.07034
   H        1.48387        -3.83264         8.91570
   H       -1.99755        -0.15699         9.22121
   H        2.16397        -0.65399        13.81461
   H        0.69276         1.48151        14.09261
   H        2.76909        -2.98024        12.70159
   H        1.75247        -4.82441        10.48741
   H        3.71425        -5.19319        12.78886
   H        2.18405        -9.78937         8.71188
   H        3.76226       -11.65169         8.64993
   H        5.61939       -11.78634        10.25640
   H        5.92426       -10.05037        11.96624
*
