# ORCA input file
# SCF done       -209.521985664938          0.000741647909
! CAM-B3LYP def2-SVP def2/J RIJCOSX Grid4 TightSCF
%maxcore 5000
%tddft
    Mode sTDDFT
    Ethresh 5.0
    maxcore 5000
end

%pal
  nprocs 6
  end
* xyz 0 1
   C       -2.46965         2.55650        -0.24587
   C       -2.13020         2.65731         1.09508
   C       -1.60870         1.57274         1.78594
   C       -1.40247         0.35652         1.15239
   C       -1.73471         0.24500        -0.18745
   C       -2.27669         1.34461        -0.89040
   C       -2.55598         0.93519        -2.26085
   C       -2.96128         1.75981        -3.27672
   C       -3.16934         3.14817        -3.13143
   N       -3.35769         4.27947        -3.08429
   C       -3.18544         1.37039        -4.61432
   N       -3.37988         1.13757        -5.72195
   C       -2.32428        -0.50342        -2.32585
   C       -1.61181        -0.87480        -1.10846
   C       -0.76482        -1.93765        -0.95012
   C       -0.45398        -2.87532        -1.95778
   N       -0.10881        -3.64444        -2.73654
   C       -0.01607        -2.17685         0.22157
   N        0.61341        -2.42713         1.14800
   C       -2.80298        -1.31737        -3.31724
   C       -3.00351        -2.71485        -3.28488
   C       -3.16440        -3.55009        -2.19501
   C       -3.42201        -4.87007        -2.65707
   C       -3.41783        -4.77608        -4.11566
   C       -3.19370        -3.50930        -4.49885
   F       -3.62404        -5.82624        -4.91807
   C       -3.60861        -6.00857        -1.90115
   C       -3.84567        -7.33162        -2.34262
   C       -3.97679        -8.16667        -1.24482
   C       -3.80921        -7.35201        -0.03294
   C       -3.59296        -6.09214        -0.43247
   F       -3.39080        -5.03396         0.36110
   C       -4.23121        -9.54862        -1.31360
   C       -4.41990       -10.35037        -0.22352
   C       -4.64559       -11.74190        -0.18590
   S       -4.94662       -12.40608         1.39560
   C       -5.02896       -14.03263         0.78662
   C       -4.75573       -14.04577        -0.58922
   C       -4.60694       -12.76972        -1.14214
   C       -4.44273       -12.53354        -2.62245
   N       -5.43934       -11.57094        -3.07954
   C       -4.51871       -13.85371        -3.40599
   C       -3.77191       -14.95752        -2.68092
   C       -4.50324       -15.30701        -1.37583
   N       -3.77086       -16.25910        -0.55451
   C       -5.41044       -15.02646         1.71152
   C       -5.82659       -16.29908         1.44369
   C       -6.24196       -17.22038         2.42309
   C       -6.70784       -18.49883         2.16176
   C       -7.03761       -19.13817         3.38066
   C       -6.73389       -18.14900         4.42489
   C       -6.26670       -17.01862         3.87723
   F       -6.90926       -18.38215         5.72939
   C       -7.53901       -20.40943         3.57584
   C       -7.87982       -21.04816         4.79801
   C       -8.34428       -22.32569         4.53045
   C       -8.30612       -22.52730         3.07992
   C       -7.83488       -21.39529         2.53507
   F       -7.64150       -21.16691         1.22992
   C       -8.77840       -23.25345         5.49493
   C       -9.23111       -24.51500         5.21932
   C       -9.62923       -25.40592         6.22866
   C      -10.17645       -26.65247         6.04080
   C      -10.18388       -27.71610         7.03465
   C      -10.03008       -27.58647         8.38979
   C       -9.88479       -26.36444         9.07965
   N       -9.76991       -25.40966         9.70718
   C      -10.04172       -28.66950         9.29397
   N      -10.03929       -29.50311        10.08304
   C      -10.39042       -28.96506         6.31135
   C      -10.65497       -28.66827         4.95501
   C      -10.86605       -29.68406         4.03814
   C      -10.81173       -30.99746         4.48107
   C      -10.56059       -31.29087         5.81346
   C      -10.34919       -30.28159         6.74144
   C      -10.67597       -27.22083         4.79899
   C      -11.27269       -26.53764         3.77131
   C      -11.77010       -27.15397         2.60415
   N      -12.16633       -27.59619         1.62177
   C      -11.57649       -25.15896         3.79874
   N      -11.90186       -24.05836         3.78892
   H       -2.88049         3.40771        -0.76308
   H       -2.28024         3.59507         1.60782
   H       -1.36112         1.67358         2.83153
   H       -1.00586        -0.48228         1.70096
   H       -3.14438        -0.83932        -4.22666
   H       -3.15645        -3.25858        -1.16284
   H       -3.12495        -3.12508        -5.49752
   H       -3.91881        -7.63581        -3.36797
   H       -3.84759        -7.70729         0.97748
   H       -4.32809        -9.96927        -2.30157
   H       -4.39460        -9.89029         0.75658
   H       -3.45671       -12.07518        -2.78933
   H       -6.37460       -11.90661        -2.87634
   H       -5.36440       -11.44595        -4.08329
   H       -4.10649       -13.70030        -4.40537
   H       -5.56818       -14.14423        -3.51569
   H       -2.75602       -14.62515        -2.44878
   H       -3.70359       -15.85009        -3.30648
   H       -5.46671       -15.77256        -1.63086
   H       -2.87602       -15.87164        -0.27651
   H       -3.59493       -17.10983        -1.07657
   H       -5.43308       -14.68751         2.73917
   H       -5.85649       -16.64947         0.42590
   H       -6.80706       -18.93708         1.18844
   H       -5.96282       -16.13195         4.39676
   H       -7.79096       -20.60750         5.77178
   H       -8.61441       -23.41025         2.55704
   H       -8.76892       -22.92038         6.52544
   H       -9.24134       -24.85203         4.19380
   H       -9.39877       -25.10681         7.24224
   H      -11.05623       -29.46903         2.99913
   H      -10.96603       -31.80012         3.77631
   H      -10.52448       -32.32012         6.13615
   H      -10.15109       -30.52890         7.77131
*
