# ORCA input file
# SCF done       -205.579729505024          0.000857866220
! CAM-B3LYP def2-SVP def2/J RIJCOSX Grid4 TightSCF
%maxcore 5000
%tddft
    Mode sTDDFT
    Ethresh 5.0
    maxcore 5000
end

%pal
  nprocs 6
  end
* xyz 0 1
   C       -2.56529         1.81975        -0.00221
   C       -3.25069         1.98033         1.19258
   C       -3.33185         0.94802         2.11675
   C       -2.72138        -0.27370         1.87673
   C       -2.03047        -0.44469         0.68842
   C       -1.95601         0.60132        -0.25926
   C       -1.19771         0.13743        -1.41309
   C       -0.78209         0.90858        -2.46444
   C       -1.04463         2.29100        -2.58133
   N       -1.22421         3.41308        -2.74091
   C        0.00351         0.46448        -3.55009
   N        0.65134         0.18485        -4.45576
   C       -0.96725        -1.29209        -1.21758
   C       -1.28064        -1.58285         0.17907
   C       -0.75360        -2.58733         0.94231
   C        0.18453        -3.53767         0.48530
   N        0.98665        -4.30910         0.20590
   C       -1.01330        -2.74255         2.32114
   N       -1.19118        -2.91983         3.44067
   C       -0.63308        -2.15795        -2.21998
   C       -0.75158        -3.56816        -2.24659
   C       -1.57809        -4.39116        -1.51172
   C       -1.38305        -5.74004        -1.93344
   C       -0.38541        -5.66904        -3.00320
   C       -0.01970        -4.39506        -3.21026
   F        0.06214        -6.74233        -3.65623
   C       -1.96222        -6.87475        -1.41640
   C       -1.74559        -8.22963        -1.78992
   C       -2.51001        -9.05150        -0.98456
   C       -3.26143        -8.20355        -0.04609
   C       -2.93149        -6.93309        -0.31158
   F       -3.39350        -5.84574         0.31593
   C       -2.54458       -10.45894        -1.06959
   C       -3.27061       -11.25953        -0.23783
   C       -3.33063       -12.66803        -0.29641
   S       -3.94458       -13.53283         1.08006
   C       -3.65478       -15.08078         0.33006
   C       -3.10818       -14.90915        -0.95073
   C       -2.95296       -13.56568        -1.29054
   S       -2.55628       -13.04167        -2.96176
   O       -1.18312       -12.61793        -3.01991
   O       -3.56312       -12.10600        -3.37818
   C       -2.71660       -14.59154        -3.88812
   C       -1.94080       -15.61321        -3.08723
   C       -2.71259       -16.04522        -1.84304
   C       -4.01232       -16.24319         1.05355
   C       -4.56431       -16.22639         2.32309
   C       -4.82454       -17.55223         2.74673
   C       -4.37926       -18.39858         1.63413
   C       -3.90429       -17.64425         0.63127
   F       -4.44851       -19.73150         1.64396
   C       -5.39218       -17.98277         3.92723
   C       -5.67046       -19.31587         4.33378
   C       -6.27270       -19.28992         5.57813
   C       -6.38149       -17.89149         6.00413
   C       -5.85944       -17.13441         5.02814
   F       -5.76002       -15.80127         5.02082
   C       -6.75657       -20.36807         6.34954
   C       -6.59972       -21.68656         6.03389
   C       -7.04159       -22.77677         6.81841
   C       -8.07997       -22.82692         7.71064
   C       -8.19925       -23.81402         8.77938
   C       -7.52927       -25.00259         8.89446
   C       -6.61609       -25.53114         7.95688
   N       -5.86675       -26.03225         7.24546
   C       -7.69705       -25.90283         9.96906
   N       -7.78607       -26.68067        10.80822
   C       -9.17737       -23.29304         9.72593
   C       -9.75998       -22.12497         9.18409
   C      -10.71293       -21.41478         9.89558
   C      -11.08529       -21.87869        11.14825
   C      -10.52197       -23.03089        11.67822
   C       -9.56478       -23.74852        10.97650
   C       -9.19922       -21.90306         7.85987
   C       -9.78663       -21.16632         6.86651
   C      -10.93525       -20.36944         7.05535
   N      -11.85685       -19.69245         7.15365
   C       -9.37627       -21.17088         5.51674
   N       -9.12874       -21.16267         4.39635
   H       -2.52019         2.62969        -0.71136
   H       -3.73213         2.92329         1.40173
   H       -3.87900         1.09478         3.03529
   H       -2.79939        -1.07165         2.59708
   H       -0.28818        -1.72551        -3.15081
   H       -2.29403        -4.08398        -0.77457
   H        0.69642        -4.02102        -3.91523
   H       -1.09136        -8.56003        -2.57251
   H       -3.94506        -8.54570         0.70498
   H       -1.92858       -10.89984        -1.83796
   H       -3.82122       -10.81436         0.58051
   H       -2.28718       -14.40901        -4.86924
   H       -3.77552       -14.81776        -3.97527
   H       -0.99035       -15.15731        -2.79920
   H       -1.72411       -16.49573        -3.69270
   H       -2.08778       -16.73402        -1.27012
   H       -3.61491       -16.58485        -2.14909
   H       -4.76949       -15.34482         2.89831
   H       -3.52913       -18.01009        -0.30084
   H       -5.46176       -20.18739         3.74665
   H       -6.80699       -17.56148         6.93186
   H       -7.25421       -20.10454         7.27561
   H       -5.99462       -21.93946         5.17493
   H       -6.43034       -23.66634         6.73437
   H      -11.15173       -20.51420         9.49759
   H      -11.82242       -21.33301        11.71705
   H      -10.82837       -23.37493        12.65413
   H       -9.13459       -24.63713        11.40781
*
