# ORCA input file
# SCF done       -209.672795144954          0.000388962999
! CAM-B3LYP def2-SVP def2/J RIJCOSX Grid4 TightSCF
%maxcore 5000
%tddft
    Mode sTDDFT
    Ethresh 5.0
    maxcore 5000
end

%pal
  nprocs 6
  end
* xyz 0 1
   C       -4.08740        -0.38417        10.78230
   C       -2.81053         0.13271        10.94514
   C       -1.75455        -0.30391        10.15798
   C       -1.94636        -1.26674         9.17827
   C       -3.21677        -1.79069         9.00725
   C       -4.29312        -1.35357         9.81327
   C       -5.49715        -2.08106         9.43041
   C       -6.76109        -1.85346         9.90454
   C       -7.08343        -0.85598        10.84986
   N       -7.41488        -0.06553        11.61304
   C       -7.92394        -2.54102         9.49590
   N       -8.91340        -3.04914         9.21175
   C       -5.08572        -3.09139         8.46355
   C       -3.72519        -2.76883         8.05893
   C       -3.14252        -3.11734         6.86861
   C       -3.81660        -3.78678         5.82392
   N       -4.33905        -4.23624         4.90592
   C       -1.83545        -2.73937         6.49771
   N       -0.77094        -2.47329         6.16143
   C       -5.81942        -4.18628         8.09040
   C       -5.32486        -5.37611         7.51172
   C       -6.07406        -6.27017         6.77186
   C       -5.23070        -7.32754         6.32960
   C       -3.92618        -7.05559         6.93128
   C       -3.96031        -5.90351         7.62090
   F       -2.87209        -7.86451         6.80359
   C       -5.53776        -8.35722         5.46550
   C       -4.67927        -9.35808         4.94795
   C       -5.37907       -10.12767         4.03124
   C       -6.75706        -9.62585         3.97060
   C       -6.83887        -8.59476         4.82273
   F       -7.92670        -7.86542         5.07647
   C       -4.83592       -11.18292         3.28132
   C       -5.47825       -11.80074         2.24098
   C       -4.94450       -12.80867         1.41771
   S       -5.56599       -12.92954        -0.19642
   C       -4.32003       -14.02022        -0.71750
   C       -3.43293       -14.28916         0.35617
   C       -3.84325       -13.68431         1.58632
   C       -3.16346       -13.99463         2.78854
   C       -3.67857       -13.73494         4.16523
   O       -2.96525       -13.47445         5.09254
   O       -5.00227       -13.91318         4.34095
   C       -1.97713       -14.69748         2.71156
   C       -1.47905       -15.14267         1.49336
   C       -2.19324       -14.97836         0.32040
   O       -1.71816       -15.43299        -0.84940
   C       -4.39753       -14.47402        -2.04748
   C       -3.80249       -15.55536        -2.67686
   C       -4.21446       -15.59116        -4.03117
   C       -5.13021       -14.45884        -4.19255
   C       -5.26176       -13.80486        -3.03033
   F       -5.73461       -14.15424        -5.34422
   C       -3.82771       -16.48070        -5.01435
   C       -4.18736       -16.48020        -6.38721
   C       -3.53132       -17.51671        -7.02892
   C       -2.73039       -18.23483        -6.03541
   C       -2.91063       -17.61227        -4.86040
   F       -2.35175       -17.95111        -3.69153
   C       -3.58074       -17.76949        -8.41312
   C       -2.96080       -18.80601        -9.04970
   C       -3.00148       -19.04192       -10.44295
   C       -3.16550       -18.12542       -11.44835
   C       -3.62562       -18.44711       -12.79491
   C       -3.66576       -19.68029       -13.38899
   C       -3.21745       -20.88795       -12.81292
   N       -2.87191       -21.90952       -12.41842
   C       -4.12905       -19.90953       -14.70261
   N       -4.48978       -20.16957       -15.76064
   C       -4.05021       -17.19339       -13.40501
   C       -3.71101       -16.12740       -12.54140
   C       -4.02815       -14.82044       -12.87263
   C       -4.68039       -14.58197       -14.07294
   C       -5.00435       -15.62578       -14.92803
   C       -4.69501       -16.93873       -14.60531
   C       -3.01713       -16.67514       -11.38571
   C       -2.16715       -15.97533       -10.57141
   C       -1.99176       -14.57730       -10.63645
   N       -1.81982       -13.44258       -10.63230
   C       -1.29934       -16.56090        -9.62601
   N       -0.53214       -16.97188        -8.87799
   H       -4.89376        -0.03497        11.40583
   H       -2.63856         0.88481        11.69977
   H       -0.76887         0.10898        10.30842
   H       -1.11795        -1.60294         8.57590
   H       -6.88105        -4.18405         8.29942
   H       -7.10534        -6.14567         6.50541
   H       -3.16652        -5.47973         8.20492
   H       -3.64736        -9.48742         5.20918
   H       -7.54860       -10.02674         3.36938
   H       -3.81705       -11.45637         3.51846
   H       -6.43526       -11.40847         1.92336
   H       -5.46233       -14.14481         3.52365
   H       -1.44205       -14.90450         3.62511
   H       -0.52895       -15.65693         1.46201
   H       -0.85351       -15.84935        -0.73062
   H       -3.14776       -16.27072        -2.22838
   H       -5.85538       -12.93183        -2.83963
   H       -4.84586       -15.77313        -6.85300
   H       -2.10383       -19.08217        -6.22777
   H       -4.18007       -17.07846        -8.99487
   H       -2.48167       -19.56963        -8.45379
   H       -2.94538       -20.08355       -10.73174
   H       -3.78892       -14.00274       -12.21231
   H       -4.93976       -13.56964       -14.34223
   H       -5.50947       -15.41657       -15.85849
   H       -4.96107       -17.73612       -15.27921
*
