# ORCA input file
# SCF done       -171.939308050736          0.000680669723
! CAM-B3LYP def2-SVP def2/J RIJCOSX Grid4 TightSCF
%maxcore 5000
%tddft
    Mode sTDDFT
    Ethresh 5.0
    maxcore 5000
end

%pal
  nprocs 6
  end
* xyz 0 1
   C        1.40944         0.64132         2.00238
   F        2.60292         1.16955         1.71340
   C        0.32375         1.47687         2.24639
   F        0.46239         2.80332         2.18692
   C       -0.90832         0.90871         2.55239
   F       -1.96515         1.69439         2.78276
   C       -1.04337        -0.47171         2.61303
   F       -2.25948        -0.96104         2.88203
   C        0.02839        -1.34303         2.37171
   C        1.25575        -0.73639         2.06427
   F        2.33916        -1.49032         1.84934
   C       -0.11666        -2.78288         2.43191
   C        0.59959        -3.70911         1.71999
   C        0.13293        -5.02044         2.06570
   C       -0.90795        -4.80288         3.05688
   C       -1.07563        -3.48580         3.27843
   F       -1.58540        -5.79530         3.65329
   C        0.56421        -6.23062         1.56848
   C        0.12252        -7.53328         1.90711
   C        0.83510        -8.46696         1.17603
   C        1.77944        -7.74123         0.31543
   C        1.60985        -6.43467         0.55453
   F        2.27531        -5.43613        -0.03539
   C        0.68270        -9.86332         1.25322
   C        1.41755       -10.76949         0.54207
   C        1.28512       -12.16832         0.62409
   N        2.10454       -13.00169        -0.11551
   C        1.78172       -14.28976         0.16088
   C        2.10127       -15.60886        -0.11705
   C        1.22639       -16.39374         0.65522
   N        0.39310       -15.56417         1.38002
   C        0.71336       -14.27284         1.10389
   C        0.40453       -12.95474         1.39290
   C        1.12983       -17.79850         0.76242
   C        1.94969       -18.68146         0.12574
   C        1.88205       -20.08631         0.23466
   C        2.74924       -20.97519        -0.37158
   C        2.38046       -22.30352        -0.02856
   C        1.20714       -22.15790         0.83665
   C        0.90581       -20.86119         1.00419
   F        0.55437       -23.19294         1.38040
   C        2.98357       -23.48415        -0.40432
   C        2.60689       -24.81654        -0.07693
   C        3.49572       -25.69286        -0.65720
   C        4.49907       -24.91082        -1.38721
   C        4.18364       -23.61685        -1.23788
   F        4.85027       -22.57260        -1.75196
   C        3.53101       -27.11486        -0.60490
   C        2.56637       -27.87726        -0.04402
   C        2.50665       -29.31511         0.04285
   C        3.58326       -30.15220         0.12213
   O        3.47832       -31.49164         0.19237
   C        2.26061       -32.08522         0.16647
   C        2.21712       -33.47941         0.19397
   C        0.99705       -34.11916         0.18362
   C       -0.18684       -33.38640         0.14827
   C       -0.14421       -32.01126         0.12428
   C        1.08095       -31.33996         0.13099
   C        1.13836       -29.87161         0.10817
   O        0.13903       -29.17532         0.13499
   C        5.01425       -29.73008         0.21361
   H        1.36372        -3.51084         0.99613
   H       -1.76230        -3.03017         3.96269
   H       -0.64130        -7.75479         2.62592
   H        2.47047        -8.18075        -0.37594
   H       -0.07161       -10.22294         1.93891
   H        2.17580       -10.40685        -0.13881
   H        2.82185       -12.68292        -0.74387
   H        2.85368       -15.98007        -0.78187
   H       -0.31713       -15.88494         2.01541
   H       -0.34462       -12.58089         2.06021
   H        0.35138       -18.17494         1.41214
   H        2.73423       -18.29801        -0.51182
   H        3.57452       -20.70863        -1.00205
   H        0.09962       -20.46091         1.58637
   H        1.76110       -25.07571         0.52742
   H        5.32112       -25.32484        -1.93866
   H        4.37983       -27.57502        -1.08921
   H        1.66918       -27.39496         0.32115
   H        3.14419       -34.02946         0.22364
   H        0.96101       -35.19781         0.20390
   H       -1.13557       -33.90045         0.14035
   H       -1.04268       -31.41374         0.09829
   H        5.10327       -28.78104         0.73505
   H        5.44990       -29.62945        -0.78006
   H        5.57259       -30.49899         0.74441
*
