# ORCA input file
# SCF done       -183.026456432245          0.000951270694
! CAM-B3LYP def2-SVP def2/J RIJCOSX Grid4 TightSCF
%maxcore 5000
%tddft
    Mode sTDDFT
    Ethresh 5.0
    maxcore 5000
end

%pal
  nprocs 6
  end
* xyz 0 1
   C       -0.83467         2.15980        -2.10421
   C       -0.88478         1.41225        -1.00079
   C        0.26098         0.69326        -0.51868
   C        1.49353         0.87494        -1.04389
   C        1.69992         1.88847        -2.15513
   C        0.41392         2.22747        -2.94168
   N        0.44563         3.52035        -3.58423
   C        1.19936         4.41220        -3.12006
   C        2.10281         4.17729        -1.97723
   N        2.33315         3.02867        -1.52431
   F        2.66845         5.23349        -1.40242
   F        1.20641         5.61755        -3.67930
   C        2.67108         0.25028        -0.52430
   C        2.77495        -0.64497         0.52323
   C        4.09438        -1.02864         0.76778
   C        5.01234        -0.41525        -0.10599
   S        4.24538         0.62383        -1.21836
   C        6.31719        -0.84803         0.23249
   C        6.22395        -1.73165         1.32088
   C        4.82253        -1.87546         1.69071
   C        4.31611        -2.64153         2.70258
   C        5.14316        -3.40866         3.54722
   N        5.81453        -4.02915         4.24099
   C        2.93416        -2.71189         2.97117
   N        1.81000        -2.77484         3.19032
   C        7.45860        -2.20542         1.75067
   C        8.50661        -1.69355         0.99936
   S        7.93750        -0.60870        -0.26214
   C        9.89927        -1.93327         1.17956
   C       10.37577        -2.79018         2.14430
   C       11.72116        -3.03363         2.40704
   C       12.76873        -2.48179         1.53621
   C       12.53220        -1.61819         0.52572
   S       10.97051        -1.03730         0.10957
   C       13.98469        -3.05549         2.00031
   C       13.72439        -3.89174         3.08714
   C       14.90116        -4.48009         3.60067
   C       15.99904        -4.08674         2.90399
   S       15.65598        -2.98999         1.60767
   C       12.31503        -3.86595         3.37707
   C       11.71539        -4.55560         4.46002
   C       10.51768        -4.24328         5.02310
   C        9.87516        -4.96307         6.05802
   C       10.26154        -6.12305         6.71611
   C        9.32185        -6.52523         7.66002
   C        8.20391        -5.67302         7.72333
   S        8.31724        -4.37429         6.62608
   C        7.31192        -6.17418         8.70214
   C        7.86222        -7.34030         9.26184
   C        9.13768        -7.60461         8.62284
   C        9.98498        -8.64848         8.85693
   C        9.69370        -9.66588         9.78959
   N        9.46445       -10.50780        10.53366
   C       11.20575        -8.78744         8.16523
   N       12.20402        -8.90240         7.61159
   C        7.05291        -7.90314        10.25215
   C        5.89058        -7.18555        10.44750
   S        5.79656        -5.78517         9.37806
   C        4.80871        -7.45371        11.34823
   C        3.58259        -6.91122        11.18711
   C        2.48497        -7.21065        12.06136
   C        2.65847        -7.91094        13.18309
   C        4.02971        -8.33748        13.63171
   C        5.05372        -8.44845        12.47646
   N        6.42138        -8.30824        12.92427
   C        6.65885        -7.61923        13.94824
   C        5.59214        -7.04425        14.78671
   N        4.39037        -7.38817        14.66687
   F        5.93309        -6.15043        15.71046
   F        7.91847        -7.44663        14.33578
   H       -1.67944         2.71668        -2.47539
   H       -1.79907         1.33590        -0.43251
   H        0.11439         0.01552         0.30672
   H        2.44725         1.49045        -2.85739
   H        0.29323         1.50167        -3.75946
   H        1.93119        -1.00135         1.08400
   H        7.58640        -2.88314         2.57362
   H        9.64183        -3.33393         2.71677
   H       13.31855        -1.21452        -0.09221
   H       14.93935        -5.15665         4.43486
   H       17.01923        -4.37381         3.06829
   H       12.29481        -5.36759         4.87859
   H        9.99357        -3.35734         4.69570
   H       11.18114        -6.63818         6.50935
   H        7.29156        -8.79175        10.80462
   H        3.40303        -6.23718        10.36214
   H        1.50719        -6.85065        11.78029
   H        1.85570        -8.10143        13.87527
   H        3.95854        -9.30870        14.14068
   H        4.98946        -9.45350        12.03655
*
