# ORCA input file
# SCF done       -241.296672047021          0.000615737142
! CAM-B3LYP def2-SVP def2/J RIJCOSX Grid4 TightSCF
%maxcore 5000
%tddft
    Mode sTDDFT
    Ethresh 5.0
    maxcore 5000
end

%pal
  nprocs 6
  end
* xyz 0 1
   C       12.16301         9.15923         2.90529
   C       11.76291        10.30118         3.54107
   F       11.98415        10.43651         4.86223
   C       11.12376        11.35146         2.86861
   C       10.88928        11.23161         1.52705
   C       11.27973        10.07528         0.82111
   C       11.93195         9.01980         1.52288
   C       12.34519         7.85561         0.83412
   C       12.10774         7.75215        -0.50925
   C       11.43729         8.80153        -1.20274
   C       11.03605         9.93918        -0.56421
   C       11.27271         8.42398        -2.62135
   O       10.79557         9.08375        -3.51638
   C       11.76326         7.02205        -2.70662
   C       12.45531         6.71348        -1.47359
   C       13.46339         5.79738        -1.32685
   C       14.16306         5.59063        -0.12203
   N       14.74986         5.37764         0.84161
   C       13.98718         5.04437        -2.39915
   N       14.49183         4.47209        -3.25711
   C       11.44039         6.24708        -3.77607
   C       11.44397         4.83262        -3.87656
   C       11.47310         4.11460        -5.04577
   C       11.44827         2.71971        -4.85249
   C       11.35006         2.37526        -3.48963
   S       11.30610         3.77971        -2.47136
   C       11.30686         1.07005        -3.02591
   O       11.18715         0.94393        -1.67527
   C       11.69796        -0.18233        -0.99889
   C       11.35579         0.05499        -4.00075
   C       11.48971         0.40090        -5.38333
   C       11.53598         1.71044        -5.83773
   O       11.65023         2.17540        -7.10187
   C       11.79532         1.29927        -8.19507
   S       11.55172        -1.04819        -6.37151
   C       11.36571        -2.07260        -4.97793
   C       11.27687        -1.35089        -3.82324
   C       11.31517        -3.49134        -5.13832
   C       11.01785        -4.43556        -4.19658
   C       11.04360        -5.75681        -4.70380
   C       11.38218        -5.79246        -6.06719
   S       11.65460        -4.20181        -6.70589
   C       11.48411        -6.96134        -6.81177
   O       11.83248        -6.75232        -8.11092
   C       12.25863        -7.79102        -8.95616
   C       11.19501        -8.16037        -6.13780
   C       10.84794        -8.12616        -4.74643
   C       10.77598        -6.95520        -4.00877
   O       10.47754        -6.78107        -2.69512
   C       10.19259        -7.87790        -1.86007
   S       10.51178        -9.74752        -4.15927
   C       10.81532       -10.43675        -5.72879
   C       11.16237        -9.48740        -6.64369
   C       10.67528       -11.84119        -5.94769
   C       11.05347       -12.55180        -7.05383
   C       10.75002       -13.92857        -6.96333
   C       10.11921       -14.25253        -5.74775
   S        9.92437       -12.85585        -4.73310
   C        9.68608       -15.53018        -5.42249
   O        9.08116       -15.63962        -4.21287
   C        8.14580       -16.65730        -3.93854
   C        9.94475       -16.53956        -6.37331
   C       10.58339       -16.20876        -7.61631
   C       10.98503       -14.92402        -7.93756
   O       11.58468       -14.46571        -9.06537
   C       11.81995       -15.31821       -10.16160
   S       10.77688       -17.64503        -8.60145
   C       10.00258       -18.64793        -7.39909
   C        9.64772       -17.91568        -6.29336
   C        9.89211       -20.03664        -7.63403
   C        9.10630       -20.96973        -7.02380
   C        9.47930       -22.40580        -7.16237
   O       10.29034       -22.86967        -7.93091
   C        8.69168       -23.11481        -6.13662
   C        8.73486       -24.43061        -5.77723
   C        7.89140       -24.89020        -4.74080
   C        7.01919       -23.96896        -4.09113
   C        6.18303       -24.43233        -3.05700
   C        6.22373       -25.75193        -2.70159
   C        7.07379       -26.67323        -3.32818
   C        7.89305       -26.23981        -4.33336
   F        5.42435       -26.19654        -1.71518
   C        6.99241       -22.61149        -4.48835
   C        7.81200       -22.19214        -5.50100
   C        7.96408       -20.88839        -6.14409
   C        7.03541       -19.87831        -6.08763
   C        7.04732       -18.75026        -6.92947
   N        6.99177       -17.82460        -7.60693
   C        5.92061       -19.87561        -5.22661
   N        5.01820       -19.79293        -4.52116
   H       12.65638         8.37226         3.45399
   H       10.83146        12.22923         3.42285
   H       10.39820        12.02729         0.98721
   H       12.83201         7.06816         1.38763
   H       10.53891        10.72793        -1.10886
   H       11.05894         6.77939        -4.64217
   H       11.55397         4.56830        -6.01658
   H       12.60174        -0.56725        -1.47602
   H       10.94576        -0.97361        -0.92174
   H       11.94194         0.16471         0.00590
   H       11.90274         1.94654        -9.06470
   H       10.91543         0.66425        -8.32584
   H       12.68685         0.67492        -8.09878
   H       11.14417        -1.83276        -2.87492
   H       10.77247        -4.21663        -3.17456
   H       12.71185        -7.29167        -9.81286
   H       11.41639        -8.39508        -9.30757
   H       13.00655        -8.42601        -8.47386
   H       10.02422        -7.44744        -0.87348
   H       11.03001        -8.57776        -1.80759
   H        9.29144        -8.40774        -2.17831
   H       11.35615        -9.75365        -7.66318
   H       11.54002       -12.12580        -7.91073
   H        7.50261       -16.25879        -3.15354
   H        8.63709       -17.55905        -3.55950
   H        7.53747       -16.89536        -4.81420
   H       12.25644       -14.67974       -10.92888
   H       10.89316       -15.75447       -10.54156
   H       12.52676       -16.11400        -9.91352
   H        9.24631       -18.39359        -5.42029
   H       10.57854       -20.44299        -8.37153
   H        9.40281       -25.11425        -6.27935
   H        5.51294       -23.75193        -2.55506
   H        7.06290       -27.70194        -3.00469
   H        8.55638       -26.93077        -4.83146
   H        6.32695       -21.93604        -3.97433
*
