# ORCA input file
# SCF done       -162.592016095378          0.000732738078
! CAM-B3LYP def2-SVP def2/J RIJCOSX Grid4 TightSCF
%maxcore 5000
%tddft
    Mode sTDDFT
    Ethresh 5.0
    maxcore 5000
end

%pal
  nprocs 6
  end
* xyz 0 1
   C       -8.88518        -5.45206         4.07991
   N       -9.06928        -5.71342         2.81992
   N       -8.07928        -5.93553         1.98307
   C       -6.80958        -5.91211         2.34061
   C       -6.47846        -5.63424         3.70285
   C       -7.57174        -5.39536         4.60902
   N       -7.04700        -5.16474         5.79761
   O       -5.73076        -5.25362         5.64060
   N       -5.36228        -5.53439         4.39306
   C       -5.82827        -6.16670         1.34373
   C       -4.45178        -6.18265         1.47412
   C       -3.83118        -6.47114         0.26115
   C       -4.75708        -6.67392        -0.78796
   S       -6.37741        -6.50912        -0.28523
   C       -4.03348        -6.95812        -1.96936
   C       -2.65880        -6.93673        -1.67827
   C       -2.48796        -6.62899        -0.26349
   C       -1.30808        -6.51207         0.41103
   C       -0.06347        -6.69286        -0.22825
   N        0.94665        -6.84249        -0.75031
   C       -1.24779        -6.20075         1.78630
   N       -1.18166        -5.94568         2.90184
   C       -1.86143        -7.20105        -2.78816
   C       -2.61365        -7.42292        -3.93091
   S       -4.34223        -7.30559        -3.61403
   C       -2.14042        -7.71705        -5.24048
   C       -2.99094        -7.87937        -6.31020
   C       -2.59502        -8.16007        -7.61388
   C       -1.16921        -8.19582        -7.96919
   C       -0.16235        -8.08162        -7.07563
   S       -0.39359        -7.86057        -5.39127
   C       -1.13305        -8.35334        -9.38167
   C       -2.43592        -8.41534        -9.87921
   C       -2.46324        -8.57458       -11.28219
   C       -1.20861        -8.62466       -11.80091
   S        0.05008        -8.48687       -10.61904
   C       -3.36583        -8.32827        -8.78460
   C       -4.76755        -8.41407        -8.95217
   C       -5.67993        -8.72482        -7.99097
   C       -7.07933        -8.76243        -8.19109
   C       -7.82293        -8.42549        -9.31625
   C       -9.18763        -8.58334        -9.10853
   C       -9.50338        -9.04594        -7.81668
   S       -8.10698        -9.28081        -6.86044
   C      -10.90682        -9.17145        -7.70785
   C      -11.48629        -8.78168        -8.93870
   C      -10.42808        -8.39999        -9.85305
   C      -10.55152        -7.95797       -11.13806
   C      -11.80243        -7.80649       -11.77324
   N      -12.80955        -7.67712       -12.30513
   C       -9.42687        -7.62281       -11.92032
   N       -8.51037        -7.35097       -12.55435
   C      -12.87545        -8.87207        -8.92934
   C      -13.34279        -9.32520        -7.70908
   S      -12.06499        -9.64651        -6.55120
   C      -14.68612        -9.55036        -7.30484
   N      -14.90239       -10.00108        -6.08323
   N      -16.10332       -10.24281        -5.60539
   C      -17.18998       -10.05667        -6.29442
   C      -17.11379        -9.57477        -7.62485
   C      -15.80439        -9.30873        -8.16192
   N      -15.96176        -8.87666        -9.39490
   O      -17.27476        -8.87242        -9.61391
   N      -17.98743        -9.28585        -8.57046
   H       -9.75954        -5.28457         4.68763
   H       -3.95750        -5.99197         2.41009
   H       -0.78685        -7.23162        -2.78246
   H       -4.04306        -7.73802        -6.10717
   H        0.87603        -8.12773        -7.36371
   H       -3.35404        -8.64580       -11.87910
   H       -0.92799        -8.73763       -12.82979
   H       -5.11853        -8.25681        -9.96340
   H       -5.34697        -9.00644        -7.00306
   H       -7.38041        -8.07791       -10.23094
   H      -13.53239        -8.62942        -9.74562
   H      -18.12896       -10.28228        -5.81570
*
