# ORCA input file
# SCF done       -167.068445952047          0.000911417773
! CAM-B3LYP def2-SVP def2/J RIJCOSX Grid4 TightSCF
%maxcore 5000
%tddft
    Mode sTDDFT
    Ethresh 5.0
    maxcore 5000
end

%pal
  nprocs 6
  end
* xyz 0 1
   C      -11.02363        -0.46234         5.15788
   C      -11.89774        -1.24077         5.90050
   C      -11.69156        -2.60598         6.05106
   C      -10.59991        -3.23181         5.46932
   C       -9.71648        -2.46490         4.72648
   C       -9.93013        -1.07521         4.56415
   C       -8.87341        -0.52667         3.72897
   C       -8.63171         0.79150         3.47159
   C       -9.40965         1.85213         3.98685
   N      -10.00202         2.75478         4.37430
   C       -7.55119         1.27606         2.70038
   N       -6.69302         1.73787         2.09523
   C       -8.11488        -1.67237         3.21928
   C       -8.48704        -2.82915         4.04389
   C       -7.71382        -3.92102         4.30844
   C       -6.39732        -4.09311         3.82796
   N       -5.30475        -4.24632         3.51148
   C       -8.10391        -4.97716         5.16010
   N       -8.37168        -5.86211         5.83871
   C       -7.37066        -1.67560         2.09162
   C       -6.91813        -2.87352         1.42703
   N       -7.71622        -3.92941         1.40591
   N       -7.35177        -5.07691         0.92576
   C       -6.16551        -5.29049         0.39456
   C       -5.25849        -4.21273         0.24496
   C       -5.65935        -2.94386         0.78163
   N       -4.71660        -2.01593         0.64188
   S       -3.45671        -2.68715        -0.09220
   N       -4.03127        -4.16990        -0.26524
   C       -5.83328        -6.65357         0.01018
   N       -5.11934        -6.85728        -1.07690
   N       -4.78703        -8.04336        -1.48918
   C       -5.13607        -9.14280        -0.85498
   C       -5.89973        -9.06335         0.33639
   C       -6.26653        -7.75376         0.79169
   N       -6.93115        -7.79189         1.94420
   S       -7.07636        -9.32321         2.39453
   N       -6.30801       -10.01658         1.17072
   C       -4.72664       -10.43168        -1.39110
   N       -5.57550       -11.43358        -1.28798
   N       -5.28039       -12.64918        -1.62720
   C       -4.08823       -12.99780        -2.08518
   C       -3.12717       -11.99186        -2.35041
   C       -3.45674       -10.64500        -1.98128
   N       -2.44931        -9.80765        -2.20963
   S       -1.22820       -10.63367        -2.83040
   N       -1.89459       -12.09389        -2.84001
   C       -3.81839       -14.39545        -2.31978
   C       -4.29246       -15.39615        -1.54550
   C       -4.34095       -16.81033        -1.92684
   C       -3.55493       -17.43323        -2.85232
   C       -2.50373       -16.81222        -3.56386
   N       -1.63144       -16.37494        -4.16693
   C       -3.66162       -18.80166        -3.18643
   N       -3.70065       -19.90422        -3.50106
   C       -5.39064       -17.41467        -1.12180
   C       -5.82793       -16.47860        -0.15440
   C       -6.84200       -16.80321         0.73258
   C       -7.41255       -18.06409         0.65220
   C       -6.97843       -18.98711        -0.29046
   C       -5.96701       -18.67468        -1.18542
   C       -5.03104       -15.27088        -0.28239
   C       -4.82709       -14.33530         0.68879
   C       -5.53063       -14.30047         1.91218
   N       -6.07480       -14.22325         2.91892
   C       -3.83458       -13.33302         0.62536
   N       -3.00332       -12.54183         0.64460
   H      -11.20217         0.59440         5.04417
   H      -12.75420        -0.77616         6.36450
   H      -12.39182        -3.19037         6.62792
   H      -10.45353        -4.29352         5.58365
   H       -7.11649        -0.74817         1.59853
   H       -3.23847       -14.61331        -3.20527
   H       -7.19210       -16.09023         1.46116
   H       -8.20729       -18.33016         1.33207
   H       -7.43724       -19.96304        -0.33228
   H       -5.64694       -19.39960        -1.91590
*
