# ORCA input file
# SCF done       -181.456097425143          0.000823939078
! CAM-B3LYP def2-SVP def2/J RIJCOSX Grid4 TightSCF
%maxcore 5000
%tddft
    Mode sTDDFT
    Ethresh 5.0
    maxcore 5000
end

%pal
  nprocs 6
  end
* xyz 0 1
   C        0.81703        -0.38719         4.73058
   C        1.88252        -1.14449         5.19918
   C        2.19964        -2.36848         4.62991
   C        1.46170        -2.86313         3.56424
   C        0.39649        -2.11792         3.08942
   C        0.06434        -0.87734         3.67626
   C       -1.11317        -0.33894         2.99928
   C       -1.69546         0.87654         3.25885
   C       -1.20236         1.80461         4.19828
   N       -0.85681         2.60802         4.94235
   C       -2.84366         1.38738         2.62111
   N       -3.77731         1.86622         2.15316
   C       -1.55628        -1.34717         2.05511
   C       -0.52415        -2.35906         1.98859
   C       -0.27045        -3.19139         0.92111
   C       -1.00535        -3.18081        -0.28078
   N       -1.55236        -3.17970        -1.29091
   C        0.81570        -4.07620         0.86368
   N        1.67907        -4.82953         0.76171
   C       -2.77446        -1.34883         1.39849
   C       -3.48433        -2.46642         0.95295
   C       -4.59144        -2.47096         0.10129
   C       -5.11526        -3.73650        -0.09500
   C       -4.42528        -4.73192         0.65330
   S       -3.13571        -4.09723         1.56694
   C       -5.01073        -5.96821         0.41484
   C       -6.08609        -5.80675        -0.49723
   C       -6.17382        -4.38863        -0.84020
   C       -7.07091        -3.80945        -1.69291
   C       -8.05509        -4.56524        -2.36077
   N       -8.85750        -5.18229        -2.90080
   C       -7.07605        -2.42430        -1.95607
   N       -7.09330        -1.29835        -2.17256
   C       -6.71981        -6.99735        -0.78858
   C       -6.15479        -8.09300        -0.10782
   S       -4.80289        -7.59437         0.90259
   C       -6.56606        -9.42424        -0.16340
   C       -6.00038       -10.47220         0.54244
   C       -6.40039       -11.82772         0.55969
   C       -5.66438       -12.62558         1.39488
   C       -4.64229       -11.94189         2.07711
   S       -4.63610       -10.25831         1.60784
   C       -3.70958       -12.34584         3.02113
   C       -3.49357       -13.60930         3.60732
   C       -2.49502       -13.59484         4.53249
   C       -1.86892       -12.32821         4.72505
   S       -2.61733       -11.14387         3.68352
   C       -0.82461       -12.14194         5.59267
   C       -0.02263       -11.01132         5.91289
   C        1.05699       -11.20712         6.78209
   C        1.94878       -10.19996         7.11812
   C        1.81174        -8.92400         6.60560
   C        0.69334        -8.65437         5.77631
   C       -0.21793        -9.68378         5.42051
   N       -1.26857        -9.38214         4.64281
   C       -1.44009        -8.15465         4.21196
   C       -0.52407        -7.12975         4.58116
   N        0.49193        -7.39227         5.35572
   C       -0.68311        -5.72030         4.11663
   C       -2.61194        -7.85767         3.34505
   C        2.75902        -7.84038         6.85593
   C        3.15452        -7.47637         8.12322
   C        3.97603        -6.36201         8.33541
   C        4.39675        -5.58711         7.28722
   C        4.04502        -5.94755         5.97409
   C        3.25467        -7.10231         5.74819
   N        3.02241        -7.52542         4.49038
   C        3.47040        -6.81930         3.48927
   C        4.16399        -5.58686         3.71554
   N        4.44890        -5.19278         4.92723
   C        4.61710        -4.73835         2.57664
   C        3.24578        -7.34312         2.11422
   H        0.58914         0.56085         5.18912
   H        2.47063        -0.77085         6.02347
   H        3.02650        -2.94759         5.01368
   H        1.71324        -3.81751         3.13193
   H       -3.29228        -0.40594         1.28210
   H       -4.95348        -1.56941        -0.35991
   H       -7.55572        -7.11154        -1.45510
   H       -7.40788        -9.65013        -0.80380
   H       -7.22508       -12.17624        -0.03675
   H       -5.84040       -13.67761         1.53351
   H       -4.06599       -14.48079         3.34161
   H       -2.17670       -14.45928         5.08959
   H       -0.53238       -13.04298         6.12346
   H        1.21670       -12.19588         7.18858
   H        2.78450       -10.42437         7.76484
   H       -0.65967        -5.67925         3.02860
   H        0.12825        -5.12220         4.52204
   H       -1.63236        -5.30341         4.44997
   H       -3.02090        -6.87478         3.56288
   H       -3.37914        -8.61171         3.47974
   H       -2.30189        -7.86913         2.30049
   H        2.79087        -8.03605         8.97305
   H        4.25527        -6.10228         9.34585
   H        4.99624        -4.70267         7.43679
   H        3.80100        -4.56148         1.87862
   H        5.41205        -5.24709         2.03203
   H        4.99723        -3.79223         2.95173
   H        4.19446        -7.46222         1.59348
   H        2.63730        -6.64564         1.54039
   H        2.73995        -8.30299         2.17217
*
