# ORCA input file
# SCF done       -181.874784202425          0.000889100890
! CAM-B3LYP def2-SVP def2/J RIJCOSX Grid4 TightSCF
%maxcore 5000
%tddft
    Mode sTDDFT
    Ethresh 5.0
    maxcore 5000
end

%pal
  nprocs 6
  end
* xyz 0 1
   C       -3.80649        -2.93790        -1.27128
   C       -4.11916        -4.01777        -0.48377
   C       -3.53424        -5.29236        -0.62518
   N       -3.09736        -6.35190        -0.69571
   C       -5.02655        -3.99663         0.59550
   N       -5.73337        -4.05325         1.49907
   C       -2.78662        -2.91609        -2.31288
   C       -2.64816        -1.58656        -2.77824
   C       -1.76188        -1.23480        -3.76631
   C       -0.97448        -2.24712        -4.32519
   C       -1.12177        -3.57398        -3.85637
   C       -2.01688        -3.92844        -2.85421
   S       -0.05969        -4.66782        -4.69040
   C        0.55874        -3.34548        -5.64429
   C        0.00161        -2.14609        -5.35425
  Br        1.87993        -3.67442        -6.93412
   C       -3.59165        -0.70767        -2.05678
   O       -3.73437         0.48279        -2.23988
   C       -4.35495        -1.60210        -1.15776
   C       -5.51555        -1.29495        -0.49439
   C       -6.07493        -0.03490        -0.22685
   C       -5.51590         1.23837        -0.20101
   C       -6.43672         2.20920         0.15989
   C       -7.73141         1.68657         0.40533
   S       -7.78658        -0.00369         0.23671
   C       -8.59661         2.75669         0.71259
   C       -7.85885         3.95566         0.67858
   C       -6.47610         3.64777         0.35033
   C       -5.43863         4.53183         0.26940
   C       -4.11257         4.13653        -0.00717
   N       -3.02268         3.84161        -0.20574
   C       -5.61840         5.91235         0.49059
   N       -5.75430         7.03773         0.66831
   C       -8.63133         5.07854         0.95433
   C       -9.95761         4.76401         1.19330
   S      -10.24400         3.02753         1.08102
   C      -11.04514         5.65031         1.47687
   C      -12.35203         5.17756         1.52551
   C      -13.43623         6.01382         1.71176
   C      -13.30225         7.38742         1.89278
   C      -11.96455         7.89566         1.96269
   C      -10.85245         7.04707         1.70945
   N       -9.61341         7.57079         1.68991
   C       -9.42014         8.83277         1.97224
   C      -10.51897         9.64815         2.35991
   N      -11.73685         9.17404         2.31835
   C      -10.33778        11.04823         2.83961
   C       -8.03330         9.36697         1.88765
   C      -14.46533         8.23671         1.96338
   C      -14.41473         9.59439         1.78024
   C      -15.50524        10.46144         1.75517
   C      -16.85827         9.98306         2.06595
   C      -17.15694         8.68388         2.28181
   S      -16.00868         7.41193         2.22027
   C      -17.67670        11.14487         2.07451
   C      -16.89759        12.26657         1.78049
   C      -17.66242        13.45472         1.76009
   C      -18.96952        13.21151         2.03576
   S      -19.32997        11.54081         2.32573
   C      -15.54027        11.85355         1.55239
   C      -14.48629        12.74687         1.20919
   C      -13.32676        12.39978         0.60444
   C      -12.22710        13.27821         0.33798
   C      -12.21527        14.67035         0.61909
   C      -11.03709        15.27837         0.31516
   S      -10.69513        16.97759         0.53018
   C       -8.96056        17.05898         0.00453
   S       -9.87901        14.15614        -0.33112
   C      -11.01574        12.84174        -0.19339
   C      -10.62409        11.51972        -0.57870
   C       -9.41404        11.17789        -1.02492
   H       -1.67933        -0.21158        -4.09764
   H       -2.09668        -4.95418        -2.53517
   H        0.26507        -1.22702        -5.84505
   H       -6.11848        -2.12848        -0.15223
   H       -4.48477         1.42536        -0.43495
   H       -8.28420         6.09394         0.98541
   H      -12.53171         4.12242         1.37612
   H      -14.42535         5.58142         1.68514
   H       -9.78527        11.04792         3.77859
   H      -11.30840        11.51034         2.99857
   H       -9.77041        11.62991         2.11629
   H       -7.71275         9.73900         2.85954
   H       -8.00091        10.19787         1.18333
   H       -7.35003         8.58936         1.55753
   H      -13.42566        10.01131         1.68177
   H      -18.15814         8.34412         2.49657
   H      -17.27317        14.43525         1.55345
   H      -19.77329        13.91962         2.08924
   H      -14.67243        13.78611         1.44593
   H      -13.19944        11.38059         0.27701
   H      -13.04681        15.21337         1.02708
   H       -8.65702        18.09476         0.11641
   H       -8.87949        16.75282        -1.03471
   H       -8.35729        16.41845         0.64169
   H      -11.38535        10.75706        -0.48445
   H       -8.62644        11.90554        -1.13759
   H       -9.18126        10.16502        -1.30110
*
