# ORCA input file
# SCF done       -250.606297020877          0.000671052364
! CAM-B3LYP def2-SVP def2/J RIJCOSX Grid4 TightSCF
%maxcore 5000
%tddft
    Mode sTDDFT
    Ethresh 5.0
    maxcore 5000
end

%pal
  nprocs 6
  end
* xyz 0 1
   C       -2.22681        -1.72691         0.10891
   C       -2.37028        -2.26681        -1.14311
   C       -1.62653        -3.36812        -1.61629
   N       -1.05699        -4.26406        -2.05252
   C       -3.23492        -1.77470        -2.14385
   N       -3.89577        -1.41648        -3.01201
   C       -1.25217        -2.14519         1.10698
   C       -1.27853        -1.21991         2.17862
   C       -0.46431        -1.33744         3.27876
   C        0.41312        -2.42582         3.32676
   C        0.42610        -3.35072         2.25482
   C       -0.39294        -3.22777         1.13955
   S        1.57378        -4.62637         2.52497
   C        2.01667        -3.90989         4.05188
   C        1.34112        -2.77341         4.34599
  Br        3.32523        -4.73232         5.11331
   C       -2.29588        -0.18289         1.91497
   O       -2.56531         0.75173         2.63774
   C       -2.94141        -0.57900         0.63957
   C       -4.11986        -0.11058         0.12801
   C       -4.87690         1.02258         0.48484
   C       -4.55988         2.17194         1.19833
   C       -5.62418         3.06220         1.25520
   C       -6.77808         2.58981         0.59070
   S       -6.53479         1.07448        -0.13435
   C       -7.80699         3.54946         0.73728
   C       -7.31012         4.63590         1.47722
   C       -5.91822         4.37232         1.81564
   C       -5.06900         5.19618         2.49185
   C       -3.71406         4.87517         2.72856
   N       -2.60588         4.65040         2.91454
   C       -5.48315         6.45319         2.98378
   N       -5.81595         7.47467         3.38384
   C       -8.26157         5.63840         1.66939
   C       -9.47450         5.31690         1.09013
   S       -9.44252         3.75658         0.28801
   C      -10.67112         6.08342         1.09101
   C      -11.88160         5.72574         0.56591
   C      -12.88552         6.70537         0.73430
   C      -14.22090         6.66194         0.28222
   C      -14.79598         5.49271        -0.34919
   C      -15.69850         5.44787        -1.37334
   C      -16.10929         4.13346        -1.68361
   C      -15.54623         3.16550        -0.90350
   S      -14.46492         3.88436         0.24058
   C      -15.75858         1.69712        -0.94007
  Cl      -17.23298         3.79801        -2.94396
   C      -14.98215         7.80378         0.50318
   C      -14.49136         8.95878         1.16342
   C      -13.15865         8.99710         1.62703
   C      -12.39418         7.85683         1.39954
   S      -10.71470         7.67060         1.82749
   C      -12.59539        10.15322         2.29172
   C      -11.70893        10.17252         3.33155
   C      -11.32634        11.47957         3.70140
   C      -11.89393        12.46882         2.95060
   S      -12.94027        11.77852         1.75891
   C      -11.71924        13.93821         3.05689
  Cl      -10.23217        11.78260         4.99474
   C      -15.49460         9.94287         1.31806
   C      -16.70438         9.58258         0.79049
   S      -16.65927         7.98703         0.07379
   C      -17.90097        10.35153         0.76758
   C      -18.07504        11.64329         1.23293
   C      -19.37868        12.09467         1.03453
   C      -20.20256        11.13767         0.41532
   S      -19.36917         9.68564         0.08091
   C      -21.49668        11.69051         0.25215
   C      -21.48647        13.00457         0.76490
   C      -20.16173        13.29456         1.28484
   C      -19.75712        14.43992         1.90558
   C      -18.44085        14.60754         2.38378
   N      -17.36673        14.73938         2.76266
   C      -20.64197        15.52184         2.09894
   N      -21.37235        16.39411         2.24177
   C      -22.71959        13.63405         0.66616
   C      -23.68301        12.81666         0.09069
   S      -23.01848        11.24774        -0.36135
   C      -25.03199        13.09352        -0.21110
   C      -25.83595        14.09675         0.24150
   C      -25.74300        15.04242         1.33298
   C      -25.11248        14.85352         2.53624
   C      -25.17846        15.76641         3.60992
   N      -25.20672        16.47306         4.51337
   C      -24.41243        13.68172         2.88068
   N      -23.85497        12.73387         3.21148
   C      -26.67954        16.12554         1.04632
   C      -27.49702        15.74429        -0.04762
   C      -27.05973        14.42599        -0.54329
   O      -27.54857        13.76161        -1.42764
   C      -28.50858        16.54167        -0.52536
   C      -28.71411        17.77727         0.09740
   C      -27.87899        18.15691         1.17604
   C      -26.86086        17.34713         1.66519
   S      -28.29906        19.72720         1.78721
   C      -29.57756        19.84903         0.60762
   C      -29.68391        18.77156        -0.20596
  Br      -30.64956        21.38657         0.56025
   H       -0.50453        -0.61342         4.07729
   H       -0.35100        -3.96061         0.35125
   H        1.48868        -2.20323         5.24479
   H       -4.57783        -0.70629        -0.65381
   H       -3.59668         2.32840         1.64760
   H       -8.10093         6.55808         2.20267
   H      -12.03541         4.78902         0.06217
   H      -16.03710         6.30827        -1.91969
   H      -16.19933         1.35024        -0.00557
   H      -14.81305         1.17427        -1.07842
   H      -16.42722         1.44487        -1.75913
   H      -11.36547         9.29728         3.85062
   H      -11.05322        14.16783         3.88465
   H      -12.67814        14.42721         3.22527
   H      -11.29437        14.34236         2.13834
   H      -15.33573        10.87927         1.81717
   H      -17.28779        12.21779         1.68400
   H      -22.90869        14.65327         0.94931
   H      -25.48813        12.46103        -0.96742
   H      -29.12242        16.22312        -1.35313
   H      -26.24337        17.68031         2.48286
   H      -30.41528        18.67969        -0.98799
*
