# ORCA input file
# SCF done       -224.960848715147          0.000970485460
! CAM-B3LYP def2-SVP def2/J RIJCOSX Grid4 TightSCF
%maxcore 5000
%tddft
    Mode sTDDFT
    Ethresh 5.0
    maxcore 5000
end

%pal
  nprocs 6
  end
* xyz 0 1
   C       -2.00437        -1.02062        -0.58502
   C       -1.49813        -1.21719         0.67450
   C       -0.31403        -1.93461         0.94594
   N        0.64134        -2.50242         1.23393
   C       -2.08692        -0.77422         1.87770
   N       -2.50652        -0.46703         2.90191
   C       -1.44330        -1.57166        -1.81203
   C       -2.32399        -1.28117        -2.88146
   C       -2.07758        -1.67349        -4.17453
   C       -0.89977        -2.38476        -4.42572
   C       -0.02168        -2.66649        -3.35163
   C       -0.27401        -2.27249        -2.04355
   S        1.37826        -3.54658        -3.88478
   C        0.77310        -3.52573        -5.52004
   C       -0.41584        -2.89302        -5.66202
  Br        1.76990        -4.33816        -6.88475
   C       -3.47872        -0.51186        -2.37833
   O       -4.40698        -0.10858        -3.04580
   C       -3.21908        -0.30349        -0.93440
   C       -3.87760         0.53843        -0.07968
   C       -5.07717         1.25779        -0.23531
   C       -6.10830         1.19302        -1.16599
   C       -7.12326         2.09796        -0.88708
   C       -6.86959         2.87620         0.26571
   S       -5.40486         2.46799         1.01759
   C       -7.93672         3.78594         0.43865
   C       -8.87574         3.58654        -0.58788
   C       -8.40150         2.51014        -1.44791
   C       -9.03568         1.99346        -2.53802
   C       -8.51908         0.91745        -3.29319
   N       -8.13780         0.03550        -3.91775
   C      -10.28013         2.49055        -2.98261
   N      -11.28963         2.89180        -3.34893
   C       -9.96441         4.45596        -0.49930
   C       -9.85224         5.31627         0.57699
   S       -8.38776         5.04194         1.50469
   C      -10.73909         6.35218         0.97771
   C      -10.53702         7.24246         1.99821
   C      -11.58792         8.17077         2.14284
   C      -12.61491         7.96318         1.20631
   S      -12.26259         6.62484         0.15132
   C      -13.76957         8.73763         1.13864
   O      -14.62609         8.34480         0.16471
   C      -15.87648         8.94961        -0.05494
   C      -13.87128         9.79472         2.06646
   C      -12.81180        10.00884         3.01188
   C      -11.67721         9.22107         3.08285
   O      -10.61755         9.30291         3.92295
   C      -10.56750        10.26270         4.95218
   S      -13.16184        11.39208         4.03082
   C      -14.68067        11.66585         3.22390
   C      -14.90520        10.75353         2.23098
   C      -15.50778        12.74501         3.64206
   C      -16.78569        13.06484         3.21922
   C      -17.28222        14.19156         3.87494
   C      -16.37109        14.73397         4.79833
   S      -14.91020        13.85443         4.86195
   C      -16.96682        15.85512         5.42215
   C      -18.26443        16.02119         4.89420
   C      -18.50481        14.98001         3.91077
   C      -19.65180        14.76904         3.20182
   C      -19.77045        13.71281         2.27553
   N      -19.84937        12.85335         1.52035
   C      -20.77901        15.60181         3.36165
   N      -21.68504        16.29156         3.49809
   C      -18.95459        17.07347         5.48162
   C      -18.20219        17.71847         6.45366
   S      -16.59325        17.01464         6.60665
   C      -18.53032        18.82630         7.26130
   C      -19.75145        19.34590         7.57169
   C      -21.10867        18.86075         7.44569
   C      -21.52405        17.55353         7.46905
   C      -22.87850        17.15898         7.47841
   N      -23.96328        16.78544         7.48970
   C      -20.65803        16.45157         7.59863
   N      -19.99374        15.52452         7.73341
   C      -21.99396        20.01436         7.58140
   C      -21.23046        21.12713         8.01631
   C      -19.81099        20.73719         8.10154
   O      -18.87520        21.40459         8.47840
   C      -21.79562        22.35003         8.28505
   C      -23.17622        22.48409         8.10423
   C      -23.92600        21.37288         7.64837
   C      -23.35598        20.13327         7.38389
   S      -25.60979        21.76365         7.48105
   C      -25.29103        23.38914         8.02595
   C      -23.99005        23.63059         8.31460
  Br      -26.70428        24.61394         8.16031
   H       -2.77181        -1.43803        -4.96582
   H        0.42867        -2.50769        -1.26193
   H       -0.93150        -2.78702        -6.59891
   H       -3.39725         0.71895         0.87535
   H       -6.08945         0.51767        -2.00190
   H      -10.80015         4.48371        -1.17497
   H       -9.66456         7.24644         2.62596
   H      -16.32770         8.37329        -0.86225
   H      -15.77105         9.98919        -0.37822
   H      -16.51765         8.88614         0.82856
   H       -9.63196        10.06798         5.47514
   H      -11.39933        10.15118         5.65220
   H      -10.55163        11.28203         4.55805
   H      -15.79798        10.79739         1.64002
   H      -17.32369        12.49832         2.48196
   H      -19.94038        17.39374         5.19689
   H      -17.69033        19.39090         7.65629
   H      -21.19267        23.17697         8.62577
   H      -23.96445        19.31726         7.03079
   H      -23.61782        24.57693         8.66219
*
