# ORCA input file
# SCF done       -155.714082169362          0.000684824854
! CAM-B3LYP def2-SVP def2/J RIJCOSX Grid4 TightSCF
%maxcore 5000
%tddft
    Mode sTDDFT
    Ethresh 5.0
    maxcore 5000
end

%pal
  nprocs 6
  end
* xyz 0 1
   C        5.63648        -1.56177         3.15647
   C        4.41824        -1.95081         2.69374
   C        3.55638        -0.84871         2.52388
   C        4.16394         0.36588         2.87071
   S        5.77290         0.15353         3.39766
   C        3.23068         1.42223         2.67519
   C        2.03366         0.86301         2.20413
   C        2.20035        -0.58259         2.09484
   C        1.25959        -1.48263         1.68020
   C       -0.03456        -1.07893         1.29711
   N       -1.08874        -0.74860         0.98624
   C        1.51729        -2.86631         1.61308
   N        1.71984        -3.99407         1.55383
   C        1.04068         1.81352         1.98499
   C        1.46590         3.09689         2.29349
   S        3.13314         3.11972         2.85258
   C        0.69051         4.27601         2.22531
   C        1.19487         5.49743         2.60449
   C        0.28199         6.61925         2.54484
   O        0.72104         7.87784         2.78351
   C        2.12980         8.01580         2.85830
   C        2.75198         6.87395         3.64981
   O        2.47145         5.63454         3.02255
   C       -1.00788         6.30453         2.18288
  Si       -1.09774         4.48662         1.71441
   C       -1.35520         4.19081        -0.11740
   C       -2.32028         3.53579         2.76697
   C       -2.09636         7.22314         2.11290
   S       -3.30814         6.96965         0.89561
   C       -4.17943         8.36146         1.41725
   C       -3.59599         8.99759         2.46308
   C       -4.20884        10.19983         3.10186
   C       -2.39524         8.34191         2.89412
   C       -1.61227         8.64382         4.04889
   C       -1.48730         9.81789         4.71400
   C       -0.58998         9.93610         5.80449
   C       -0.38821        11.06316         6.53303
   C        0.59016        11.16691         7.55709
   C        1.72791        10.38781         7.74963
   C        2.20289         9.49842         6.78110
   N        2.62943         8.83642         5.94396
   C        2.44796        10.75004         8.92390
   C        1.86371        11.83425         9.56231
   S        0.43303        12.40373         8.79012
   S        2.69910        12.39261        10.98134
   C        3.85808        11.12998        10.73397
   C        3.61280        10.32098         9.62577
   C        4.57555         9.28462         9.53447
   C        4.51216         8.26465         8.57243
   N        4.43111         7.41125         7.80968
   C        5.53081         9.35056        10.54697
   S        5.24466        10.68328        11.64528
   C        6.63659         8.46669        10.72600
   C        7.61735         8.45850        11.72344
   O        8.46843         7.43536        11.48831
   N        8.08745         6.78154        10.38481
   C        7.02281         7.35545         9.91362
   C        7.86640         9.28766        12.87539
   O        7.19756        10.24230        13.20084
   H        6.48513        -2.17704         3.37830
   H        4.15550        -2.97242         2.48784
   H        0.04947         1.61069         1.62598
   H        2.54739         8.03825         1.84231
   H        2.31382         8.96650         3.35972
   H        2.35975         6.87616         4.67273
   H        3.83689         6.96794         3.68616
   H       -0.65342         4.75464        -0.72940
   H       -2.35590         4.47695        -0.43341
   H       -1.22946         3.14019        -0.37232
   H       -2.11585         3.63257         3.83189
   H       -2.31254         2.47263         2.53583
   H       -3.33818         3.88498         2.60342
   H       -5.08734         8.62821         0.91277
   H       -5.22142        10.34027         2.73039
   H       -3.63407        11.09532         2.86750
   H       -4.24346        10.08102         4.18322
   H       -1.02825         7.81032         4.41750
   H       -2.00799        10.70863         4.40173
   H       -0.02052         9.05071         6.05216
   H       -1.01100        11.93257         6.37050
   H        6.55755         6.98107         9.02612
   H        8.74623         8.96620        13.45609
*
