# ORCA input file
# SCF done       -182.732261957028          0.000461014833
! CAM-B3LYP def2-SVP def2/J RIJCOSX Grid4 TightSCF
%maxcore 5000
%tddft
    Mode sTDDFT
    Ethresh 5.0
    maxcore 5000
end

%pal
  nprocs 6
  end
* xyz 0 1
   C       -0.69217         9.50100        -3.00504
   C        0.58143         9.04195        -3.14187
   C        0.93503         8.18364        -2.08197
   C       -0.10622         8.01895        -1.15887
   S       -1.49932         8.90740        -1.58871
   C        0.33304         7.14008        -0.13134
   C        1.65004         6.75271        -0.40962
   C        2.07239         7.39891        -1.64843
   C        3.28633         7.27997        -2.26247
   C        4.31802         6.47542        -1.73744
   N        5.16010         5.82014        -1.31631
   C        3.59035         7.95424        -3.46282
   N        3.84497         8.49910        -4.43949
   C        2.17501         5.87837         0.54194
   C        1.26591         5.59152         1.54430
   S       -0.26462         6.42980         1.30276
   C        1.44082         4.72936         2.66579
   C        0.43555         4.47236         3.56459
   C        0.53398         3.60613         4.65236
   C        1.74364         2.79700         4.86109
   C        2.86733         2.91570         4.12192
   S        3.04140         4.00772         2.80927
   C        1.42981         1.92177         5.93712
   C        0.12248         2.15534         6.36523
   C       -0.24740         1.31194         7.43565
   C        0.76501         0.47507         7.78261
   S        2.20170         0.67604         6.83545
   C       -0.44232         3.23004         5.59239
   C       -1.74561         3.75180         5.77965
   C       -2.15051         5.00908         5.45729
   C       -3.48901         5.43869         5.57173
   S       -3.88466         7.16446         5.29430
   C       -5.53074         6.75064         5.52986
   C       -5.65599         5.37897         5.79204
   N       -4.52709         4.68465         5.81987
   C       -7.09458         4.99587         5.93998
   C       -7.77000         6.31513         5.70476
   C       -6.81919         7.32044         5.49437
   S       -7.53714         8.85570         5.23880
   C       -9.13781         8.14228         5.36334
   C       -9.07402         6.77953         5.61886
   C      -10.26971         8.97078         5.16484
   C      -11.51910         8.51651         4.89792
   C      -12.65837         9.33631         4.65841
   C      -13.81189         8.81595         4.11695
   C      -14.96193         9.54287         3.81253
   C      -15.08128        10.94898         4.22516
   C      -14.07278        11.66845         4.76205
   S      -12.50379        11.04269         5.06029
   C      -16.41635        11.32521         3.91272
   C      -17.07726        10.25128         3.31894
   C      -18.40686        10.57256         2.96725
   C      -18.71494        11.85312         3.30033
   S      -17.41229        12.72075         4.04285
   C      -16.17036         9.13667         3.21253
   C      -16.50567         7.93924         2.53700
   C      -15.64363         7.01343         2.04156
   C      -16.02612         5.85659         1.32341
   C      -15.16536         4.92665         0.75793
   C      -15.84680         3.91276         0.08962
   C      -17.23922         4.06142         0.14101
   S      -17.71151         5.45104         1.02112
   C      -17.83138         2.99050        -0.58055
   C      -16.81227         2.16960        -1.08509
   C      -15.53429         2.71170        -0.68117
   C      -14.29074         2.21359        -0.95027
   C      -14.09743         1.04378        -1.71241
   N      -13.93175         0.09363        -2.33355
   C      -13.11573         2.83137        -0.47818
   N      -12.15606         3.32408        -0.08687
   C      -17.31578         1.07820        -1.82129
   C      -18.67482         1.09011        -1.86179
   S      -19.38519         2.42558        -1.00717
   H       -1.22602        10.16420        -3.65567
   H        1.22697         9.30658        -3.95925
   H        3.16519         5.46044         0.51479
   H       -0.51640         4.95017         3.37701
   H        3.75030         2.32426         4.30608
   H       -1.20570         1.32050         7.92213
   H        0.76767        -0.26913         8.55495
   H       -2.46984         3.09890         6.24847
   H       -1.44256         5.75263         5.12239
   H       -7.30784         4.59573         6.93308
   H       -7.38612         4.24102         5.20772
   H       -9.94885         6.16916         5.74879
   H      -10.08743        10.03760         5.17902
   H      -11.68538         7.45241         4.80129
   H      -13.81103         7.75175         3.92891
   H      -14.17979        12.70793         5.02917
   H      -19.10136         9.89960         2.49775
   H      -19.64663        12.36425         3.15534
   H      -17.56280         7.79495         2.34386
   H      -14.57673         7.15537         2.13003
   H      -14.09611         5.00509         0.83603
   H      -16.71054         0.32731        -2.29559
   H      -19.32668         0.39125        -2.34616
*
