# ORCA input file
# SCF done       -155.940326295024          0.000772442051
! CAM-B3LYP def2-SVP def2/J RIJCOSX Grid4 TightSCF
%maxcore 5000
%tddft
    Mode sTDDFT
    Ethresh 5.0
    maxcore 5000
end

%pal
  nprocs 6
  end
* xyz 0 1
   C        0.98600         1.34933         4.61340
   C        0.62075         1.23793         3.32414
   C       -0.66780         1.78181         3.00876
   S       -1.41277         2.45566         4.44492
   C        0.01839         2.00191         5.47268
   O        0.06126         2.24004         6.64482
   C       -1.22033         1.76705         1.76388
   C       -2.47179         2.27391         1.36136
   C       -2.97358         2.21863         0.06413
   C       -4.23057         2.79832        -0.03823
   C       -4.69859         3.30426         1.19301
   S       -3.58995         3.06180         2.46675
   C       -5.97781         3.87462         0.98331
   C       -6.31943         3.73182        -0.37374
   C       -5.23506         3.04812        -1.05963
   C       -5.17738         2.71012        -2.37968
   C       -6.22720         3.00592        -3.27479
   N       -7.08161         3.24698        -4.00038
   C       -4.06599         2.04167        -2.93496
   N       -3.16265         1.49615        -3.38318
   C       -7.56704         4.27085        -0.68049
   C       -8.17947         4.82181         0.43137
   S       -7.19573         4.66994         1.88025
   C       -9.44595         5.45574         0.48351
   C      -10.08485         5.99391         1.58630
   C      -11.32475         6.53968         1.25464
   C      -11.62767         6.41613        -0.11228
   S      -10.39310         5.62784        -0.98825
   C      -12.89671         6.99856        -0.34985
   C      -13.40123         7.48997         0.86659
   C      -12.42999         7.21790         1.91554
   C      -12.53359         7.53273         3.23810
   C      -13.66349         8.19544         3.76270
   N      -14.58219         8.73509         4.18595
   C      -11.51770         7.21579         4.16487
   N      -10.69210         6.95682         4.91694
   C      -14.65475         8.08653         0.73175
   C      -15.10396         8.05403        -0.57610
   S      -13.95868         7.27080        -1.65746
   C      -16.32111         8.56185        -1.09477
   C      -16.73937         8.54130        -2.41359
   C      -17.99185         9.13074        -2.57190
   C      -18.53346         9.60311        -1.36330
   S      -17.49723         9.32201        -0.03287
   C      -19.79939        10.18069        -1.62984
   C      -20.05712        10.07415        -3.01075
   C      -18.92835         9.41487        -3.64741
   C      -18.77449         9.13652        -4.97373
   C      -19.75491         9.48795        -5.92523
   N      -20.55494         9.78408        -6.69144
   C      -17.62487         8.49096        -5.47600
   N      -16.68913         7.96730        -5.88159
   C      -21.28597        10.60992        -3.38256
   C      -21.98078        11.13779        -2.30417
   S      -21.07809        10.93766        -0.79777
   C      -23.24781        11.75856        -2.20672
   C      -24.08100        12.19377        -3.19286
   S      -25.65353        12.85876        -2.75777
   C      -26.08110        13.16342        -4.48723
   O      -27.12961        13.63510        -4.82435
   C      -24.94712        12.75097        -5.29589
   C      -23.90548        12.24237        -4.61500
   H        1.91021         1.00263         5.04025
   H        1.22049         0.78153         2.55520
   H       -0.63662         1.31117         0.97315
   H       -2.42970         1.77269        -0.74890
   H       -8.02064         4.27077        -1.65544
   H       -9.65537         5.97975         2.57199
   H      -15.22262         8.52690         1.53168
   H      -16.14919         8.11571        -3.20527
   H      -21.66931        10.58227        -4.38400
   H      -23.59761        11.91031        -1.19298
   H      -24.99676        12.87509        -6.36336
   H      -22.99404        11.92232        -5.08548
*
