# ORCA input file
# SCF done       -223.105049775972          0.000936109278
! CAM-B3LYP def2-SVP def2/J RIJCOSX Grid4 TightSCF
%maxcore 5000
%tddft
    Mode sTDDFT
    Ethresh 5.0
    maxcore 5000
end

%pal
  nprocs 6
  end
* xyz 0 1
   C       -2.50319        -8.63836        -2.17306
   C       -3.45380        -8.26136        -3.12273
   C       -3.82500        -9.33048        -4.11981
   O       -3.08684       -10.25407        -4.31911
   O       -4.99199        -9.23523        -4.75628
   C       -3.95510        -6.94781        -3.12906
   C       -4.92885        -6.50095        -4.05335
   N       -5.73069        -6.09620        -4.76784
   C       -3.48820        -6.00013        -2.20761
   C       -2.54660        -6.39140        -1.28387
   C       -2.06245        -7.71294        -1.24553
   C       -1.12615        -7.83390        -0.12848
   C       -0.84138        -9.00215         0.52717
   C       -1.27231       -10.27501         0.09686
   N       -1.59425       -11.33472        -0.20139
   C       -0.18116        -9.04762         1.77327
   N        0.31500        -9.11624         2.80606
   C       -0.84805        -6.49448         0.34189
   C       -1.86799        -5.58457        -0.23867
   O       -2.06547        -4.42782         0.04554
   C        0.15691        -5.98571         1.11221
   C        1.41265        -6.55050         1.41470
   C        2.24949        -6.16822         2.45546
   C        3.42698        -6.90315         2.48294
   C        3.51752        -7.82758         1.41706
   S        2.14838        -7.80327         0.40950
   C        4.73830        -8.52420         1.52607
   C        5.42222        -8.06123         2.66693
   C        4.62012        -7.02305         3.30104
   C        4.92869        -6.32267         4.42973
   C        6.12666        -6.54606         5.14099
   N        7.10270        -6.72963         5.71365
   C        4.07697        -5.32680         4.95389
   N        3.39244        -4.51091         5.37750
   C        6.63308        -8.71189         2.87439
   C        6.88630        -9.66667         1.89930
   S        5.59464        -9.75255         0.70610
   C        8.01144       -10.53075         1.79962
   C        8.17080       -11.40945         0.75016
   C        9.23253       -12.29169         0.60595
   C       10.29903       -12.36963         1.60419
   C       10.35355       -11.59390         2.71050
   S        9.17744       -10.41260         3.10991
   C       11.17683       -13.38508         1.13438
   C       10.70384       -13.91173        -0.07291
   C       11.56237       -14.91851        -0.56955
   C       12.62636       -15.12343         0.25084
   S       12.64100       -14.11240         1.65304
   C        9.48227       -13.23300        -0.42366
   C        8.65106       -13.39639        -1.54591
   C        8.78311       -14.31894        -2.54287
   C        7.90969       -14.39424        -3.64769
   C        6.84429       -13.55555        -3.97494
   C        6.21607       -13.93733        -5.14805
   C        6.78907       -15.08412        -5.73967
   S        8.11474       -15.67639        -4.83277
   C        6.07541       -15.38400        -6.91343
   C        5.05291       -14.41674        -7.08693
   C        5.11157       -13.48063        -5.98212
   C        4.31717       -12.39278        -5.76364
   C        3.30273       -12.00989        -6.66744
   N        2.49519       -11.68292        -7.41211
   C        4.47539       -11.56912        -4.63009
   N        4.60959       -10.90185        -3.70649
   C        4.30075       -14.62962        -8.23134
   C        4.69482       -15.77007        -8.92344
   S        6.08143       -16.55199        -8.15023
   C        4.15044       -16.22173       -10.13738
   C        4.29747       -17.43336       -10.75447
   C        4.07234       -17.54673       -12.21781
   O        3.57414       -16.72282       -12.94660
   C        4.64705       -18.86362       -12.59488
   C        5.07287       -19.53221       -11.43280
   C        5.69844       -20.76331       -11.52910
   C        5.87290       -21.33606       -12.78716
   C        5.42808       -20.66935       -13.94054
   C        4.80957       -19.41784       -13.84548
   C        5.56389       -21.24745       -15.22863
   N        5.59374       -21.64406       -16.30233
   C        6.59472       -22.64313       -12.94917
   O        7.26604       -22.88587       -13.91053
   O        6.45734       -23.52418       -11.95108
   C        4.71187       -18.72530       -10.26684
   C        4.50441       -19.23598        -9.00911
   C        3.87539       -18.52150        -7.96952
   N        3.33175       -17.98295        -7.11397
   C        4.78565       -20.57442        -8.67501
   N        5.00827       -21.66494        -8.39284
   H       -2.12637        -9.64909        -2.20761
   H       -5.50598        -8.43407        -4.57454
   H       -3.85972        -4.98660        -2.22594
   H       -0.00630        -4.97795         1.48242
   H        1.97259        -5.41327         3.16914
   H        7.30809        -8.51541         3.68787
   H        7.39671       -11.39781        -0.00573
   H       11.15255       -11.66464         3.43152
   H       11.42315       -15.47044        -1.48031
   H       13.42764       -15.82386         0.11837
   H        7.81803       -12.71060        -1.60805
   H        9.57803       -15.04704        -2.50629
   H        6.55561       -12.70864        -3.38136
   H        3.47690       -14.01880        -8.55442
   H        3.60367       -15.47729       -10.70858
   H        6.08903       -21.25037       -10.64782
   H        4.46987       -18.90034       -14.72967
   H        5.86934       -23.23358       -11.23952
*
