# ORCA input file
# SCF done       -184.435452707759          0.000632888046
! CAM-B3LYP def2-SVP def2/J RIJCOSX Grid4 TightSCF
%maxcore 5000
%tddft
    Mode sTDDFT
    Ethresh 5.0
    maxcore 5000
end

%pal
  nprocs 6
  end
* xyz 0 1
   C      -14.58289        -0.13885        -1.26079
   C      -14.70734         0.22414         0.05556
   C      -15.92020         0.20293         0.77711
   N      -16.86264         0.19483         1.43217
   C      -13.66334         0.67967         0.88290
   N      -12.87150         1.07515         1.61651
   C      -15.67604        -0.57479        -2.11937
   C      -15.16036        -0.87108        -3.40512
   C      -15.95687        -1.28087        -4.44639
   C      -17.33341        -1.38034        -4.21767
   C      -17.84149        -1.07604        -2.93094
   C      -17.03165        -0.68910        -1.87042
   S      -19.56973        -1.21603        -2.87312
   C      -19.58640        -1.66844        -4.55697
   C      -18.36283        -1.72785        -5.13317
  Br      -21.22307        -2.00233        -5.39513
   C      -13.71139        -0.59979        -3.42607
   O      -12.99442        -0.62179        -4.40551
   C      -13.36406        -0.16568        -2.05032
   C      -12.13394         0.26699        -1.64642
   C      -10.91553         0.11030        -2.37068
   C       -9.87715         1.01638        -2.30056
   O       -8.68051         0.80081        -2.93760
   C       -8.62289        -0.29148        -3.75348
   C       -9.71560        -1.19857        -3.85840
   C       -9.48750        -2.19524        -4.74730
   S       -7.92422        -2.04494        -5.46094
   C       -7.58088        -0.62097        -4.55632
   O      -10.83370        -1.05337        -3.09777
   C       -9.87297         2.29715        -1.66038
   C      -10.90067         3.01596        -1.15996
   C      -10.72212         4.32639        -0.60841
   C      -11.63473         4.96801         0.14238
   C      -12.91549         4.34790         0.60072
   C      -11.43690         6.41707         0.51553
   N      -12.50077         7.18174        -0.10799
   C      -13.62968         7.52564         0.53946
   C      -14.85264         7.59066        -0.05918
   C      -16.03737         7.97189         0.58659
   C      -17.28422         7.66969         0.09642
   C      -18.54633         7.95243         0.66410
   C      -19.59499         7.35930         0.02354
   C      -19.21010         6.55995        -1.07483
   S      -17.49294         6.65884        -1.33246
   C      -19.98504         5.68344        -1.81858
   C      -21.34344         5.35017        -1.67722
   C      -21.72309         4.28041        -2.43832
   C      -20.67947         3.70075        -3.19261
   S      -19.22697         4.63546        -2.99928
   C      -20.81078         2.58331        -4.01065
   C      -19.85555         1.86947        -4.71168
   C      -18.46271         1.83824        -4.68044
   C      -17.47469         2.19769        -3.72223
   C      -17.64293         2.35485        -2.35449
   C      -16.60461         2.71418        -1.48635
   N      -15.77079         3.02079        -0.75368
   C      -18.83643         2.02298        -1.69137
   N      -19.79178         1.71591        -1.13178
   C      -16.16790         2.15036        -4.37984
   C      -16.33176         1.57803        -5.66260
   C      -17.77206         1.31568        -5.87751
   O      -18.28054         0.77957        -6.84214
   C      -15.27476         1.31272        -6.49584
   C      -13.98980         1.64072        -6.04633
   C      -13.84296         2.25025        -4.78238
   C      -14.91324         2.50899        -3.93398
   S      -12.17509         2.56291        -4.41285
   C      -11.70292         1.84445        -5.92869
   C      -12.73852         1.41960        -6.68552
  Br       -9.88409         1.73961        -6.36012
   H      -15.53488        -1.50386        -5.41362
   H      -17.46877        -0.47410        -0.90923
   H      -18.19509        -1.97197        -6.16602
   H      -12.03621         0.73654        -0.67913
   H      -10.13953        -2.99945        -5.01535
   H       -6.64913        -0.10894        -4.67250
   H       -8.88364         2.73863        -1.64533
   H      -11.91427         2.65407        -1.20575
   H       -9.78029         4.81437        -0.82598
   H      -12.71710         3.42348         1.13968
   H      -13.57293         4.09963        -0.23268
   H      -13.46099         5.01655         1.26176
   H      -10.47236         6.78455         0.15375
   H      -11.48979         6.56174         1.59718
   H      -12.61697         6.97290        -1.09291
   H      -13.51435         7.75669         1.59079
   H      -14.94085         7.24609        -1.08201
   H      -15.97731         8.47129         1.54437
   H      -18.64172         8.57085         1.53940
   H      -20.62204         7.44795         0.32803
   H      -21.99620         5.87955        -1.00694
   H      -22.71232         3.85933        -2.44104
   H      -21.83558         2.26346        -4.15701
   H      -20.25469         1.23734        -5.50187
   H      -15.42784         0.85297        -7.45980
   H      -14.74447         2.96784        -2.97449
   H      -12.62720         0.94831        -7.64483
*
