# ORCA input file
# SCF done       -170.241283811157          0.000339570089
! CAM-B3LYP def2-SVP def2/J RIJCOSX Grid4 TightSCF
%maxcore 5000
%tddft
    Mode sTDDFT
    Ethresh 5.0
    maxcore 5000
end

%pal
  nprocs 6
  end
* xyz 0 1
   C       -3.87022        -2.57800        -3.42734
   C       -3.46304        -3.64394        -2.66405
   C       -3.04024        -4.87408        -3.20585
   N       -2.69208        -5.89574        -3.59858
   C       -3.32726        -3.63180        -1.25993
   N       -3.14710        -3.69012        -0.12749
   C       -3.86234        -2.53053        -4.88343
   C       -4.09865        -1.19526        -5.28758
   C       -4.15248        -0.81709        -6.60595
   C       -3.98880        -1.81158        -7.57604
   C       -3.76238        -3.14550        -7.16370
   C       -3.68786        -3.52455        -5.82854
   S       -3.61254        -4.21762        -8.52322
   C       -3.86027        -2.87638        -9.60820
   C       -4.03817        -1.68533        -8.99108
  Br       -3.88519        -3.17285       -11.45362
   C       -4.28557        -0.34077        -4.09575
   O       -4.38379         0.86791        -4.11506
   C       -4.29894        -1.27793        -2.94230
   C       -4.78293        -1.05601        -1.68050
   C       -5.31477         0.13631        -1.14666
   O       -5.24957         1.32507        -1.79505
   C       -6.00390         0.34122         0.04296
   C       -6.53346        -0.32011         1.23998
   O       -6.49349        -1.46651         1.59931
   N       -7.16286         0.71690         1.93153
   C       -7.11875         1.96361         1.31208
   O       -7.61306         2.97217         1.74462
   C       -6.36538         1.70742         0.08057
   C       -5.87979         2.28346        -1.08155
   C       -5.96128         3.59907        -1.61743
   C       -5.36530         3.89929        -2.79319
   C       -5.45387         5.16732        -3.44368
   C       -4.77475         5.49158        -4.55856
   C       -3.78539         4.57793        -5.21420
   C       -4.95241         6.84211        -5.19512
   N       -5.19673         6.71183        -6.61327
   C       -5.08808         7.72562        -7.48944
   C       -5.36806         7.63263        -8.81951
   C       -5.28004         8.72998        -9.68960
   C       -5.52935         8.69855       -11.03871
   C       -5.54717         9.80475       -11.91841
   C       -5.85531         9.49063       -13.20798
   C       -6.07250         8.11309       -13.42925
   S       -5.89600         7.22563       -11.93633
   C       -6.37630         7.49791       -14.63343
   C       -6.66296         8.14146       -15.85441
   C       -6.93900         7.28029       -16.87565
   C       -6.85835         5.91838       -16.51273
   S       -6.44498         5.75258       -14.82559
   C       -7.05164         4.83339       -17.33969
   C       -6.86894         3.52125       -16.91156
   S       -7.10450         2.14656       -18.04063
   C       -6.63548         1.11190       -16.75749
   C       -6.34879         1.85588       -15.60135
   N       -6.48656         3.16717       -15.70508
   C       -5.91758         0.95375       -14.48785
   C       -5.98530        -0.38867       -15.15771
   C       -6.41622        -0.25185       -16.47979
   S       -6.51056        -1.75903       -17.29283
   C       -5.95706        -2.58698       -15.85165
   C       -5.72489        -1.71026       -14.80913
   C       -5.80754        -4.01288       -15.90028
   C       -5.34676        -4.77432       -14.90845
   H       -4.32804         0.21034        -6.88411
   H       -3.51673        -4.55450        -5.56390
   H       -4.20313        -0.75786        -9.50871
   H       -4.84408        -1.89062        -0.99428
   H       -7.62811         0.56869         2.81570
   H       -6.52169         4.32061        -1.04200
   H       -4.80698         3.11586        -3.28501
   H       -6.12153         5.89417        -2.99833
   H       -4.20807         3.58906        -5.37985
   H       -2.91544         4.44947        -4.57067
   H       -3.44797         4.98481        -6.16404
   H       -4.03806         7.43408        -5.05863
   H       -5.77620         7.38125        -4.70678
   H       -5.63018         5.85687        -6.92798
   H       -4.73095         8.65886        -7.07425
   H       -5.69096         6.68670        -9.23269
   H       -5.01722         9.69059        -9.26483
   H       -5.34178        10.80113       -11.56799
   H       -5.91540        10.20915       -14.00513
   H       -6.67615         9.21230       -15.95115
   H       -7.18876         7.58002       -17.87811
   H       -7.33225         5.00202       -18.36821
   H       -6.58921         1.02384       -13.63041
   H       -4.91066         1.19547       -14.14342
   H       -5.37678        -2.03185       -13.84510
   H       -6.10007        -4.46949       -16.83733
   H       -5.03493        -4.36133       -13.96512
   H       -5.26294        -5.84062       -15.02003
*
