# ORCA input file
# SCF done       -215.246359808315          0.000455006636
! CAM-B3LYP def2-SVP def2/J RIJCOSX Grid4 TightSCF
%maxcore 5000
%tddft
    Mode sTDDFT
    Ethresh 5.0
    maxcore 5000
end

%pal
  nprocs 6
  end
* xyz 0 1
   C       -3.63931        -1.08216        -1.70109
   C       -3.97715        -2.40548        -1.78536
   C       -3.22137        -3.44627        -1.20374
   N       -2.64790        -4.32918        -0.74727
   C       -5.06553        -2.92240        -2.52341
   N       -5.89496        -3.42454        -3.13688
   C       -2.42527        -0.55236        -1.09583
   C       -2.31445         0.81850        -1.43263
   C       -1.25519         1.59680        -1.03179
   C       -0.26395         0.99629        -0.24962
   C       -0.38985        -0.37211         0.09403
   C       -1.45600        -1.16081        -0.31930
   S        0.93977        -0.90968         1.07360
   C        1.63952         0.68622         1.00723
   C        0.91530         1.57822         0.28969
  Br        3.25853         1.02461         1.89035
   C       -3.47898         1.23161        -2.24075
   O       -3.64343         2.32271        -2.73725
   C       -4.36700         0.03531        -2.28808
   C       -5.67976        -0.01219        -2.65117
   C       -6.48652         1.01326        -3.19572
   O       -6.00548         2.21157        -3.61269
   C       -7.85747         1.00941        -3.40738
   C       -9.08807         0.21655        -3.24546
   O       -9.26492        -0.87851        -2.78663
   N      -10.07919         1.05447        -3.74862
   C       -9.64183         2.30167        -4.19779
   O      -10.34740         3.16099        -4.65378
   C       -8.19405         2.25971        -3.96572
   C       -7.01311         2.97978        -4.07476
   C       -6.75498         4.29330        -4.55568
   C       -5.50774         4.80928        -4.58495
   C       -5.22042         6.16408        -4.99479
   C       -6.05216         7.18089        -4.61563
   S       -5.52213         8.74701        -5.06216
   C       -4.13992         8.05086        -5.85220
   C       -4.08849         6.65425        -5.74873
   C       -3.05937         5.96316        -6.42863
   C       -3.05967         4.45794        -6.37116
   C       -2.21802         3.93579        -5.20401
   C       -2.08410         6.66069        -7.13414
   C       -0.98988         5.89814        -7.83632
   C       -1.28510         5.76255        -9.33189
   C       -2.13057         8.07621        -7.22642
   C       -1.30554         9.04044        -7.94122
   C       -1.76275        10.32279        -7.74841
   S       -3.14495        10.46742        -6.76153
   C       -3.17747         8.74233        -6.56671
   C       -0.16873         8.80871        -8.78451
   C        0.32216         9.70174        -9.68705
   C        1.43435         9.43498       -10.50494
   C        1.95214        10.32769       -11.40889
   C        3.04338        10.12688       -12.28863
   C        3.33839        11.20345       -13.06898
   C        2.50231        12.32032       -12.84205
   S        1.31577        11.95479       -11.61856
   C        2.56482        13.56462       -13.44667
   C        3.44689        13.99543       -14.45840
   C        3.26454        15.29680       -14.82730
   C        2.23328        15.95713       -14.12388
   S        1.49338        14.86751       -12.97844
   C        1.86047        17.28157       -14.26172
   C        0.83486        17.86849       -13.53201
   C        0.43474        19.18891       -13.52640
   C        1.05536        20.38578       -14.01954
   C        2.40094        20.61181       -14.20775
   C        2.93616        21.82807       -14.67216
   N        3.42599        22.78855       -15.06959
   C        3.42071        19.70799       -13.85351
   N        4.30254        19.04137       -13.53967
   C        0.02279        21.42231       -14.07683
   C       -1.14783        20.92871       -13.44945
   C       -0.91587        19.52886       -13.03173
   O       -1.68407        18.79876       -12.44127
   C       -2.28328        21.68571       -13.30364
   C       -2.26807        22.99013       -13.81123
   C       -1.10062        23.46784       -14.44910
   C        0.05282        22.70372       -14.58955
   S       -1.30169        25.10032       -15.01125
   C       -2.92870        25.11893       -14.38439
   C       -3.30468        23.96384       -13.78742
  Br       -3.97784        26.66244       -14.57877
   H       -1.19483         2.63709        -1.31094
   H       -1.50940        -2.19683        -0.02966
   H        1.19948         2.60476         0.14705
   H       -6.23410        -0.92707        -2.48199
   H      -11.05170         0.78205        -3.77672
   H       -7.61533         4.83792        -4.91459
   H       -4.69568         4.19610        -4.22077
   H       -6.94276         7.08496        -4.02537
   H       -2.69154         4.03631        -7.30621
   H       -4.08910         4.11506        -6.25895
   H       -1.16529         4.17119        -5.34561
   H       -2.32357         2.85720        -5.11633
   H       -2.53391         4.38443        -4.26600
   H       -0.88064         4.90475        -7.40922
   H       -0.03718         6.39960        -7.67106
   H       -2.19916         5.19200        -9.48094
   H       -0.47083         5.24511        -9.83462
   H       -1.41848         6.73654        -9.79634
   H       -1.32176        11.22216        -8.12996
   H        0.34632         7.86649        -8.71595
   H       -0.15457        10.66149        -9.82888
   H        1.91404         8.46763       -10.42845
   H        3.57423         9.19160       -12.31682
   H        4.13428        11.22794       -13.79109
   H        4.18619        13.34375       -14.88813
   H        3.84706        15.80675       -15.57344
   H        2.40374        17.86039       -14.99403
   H        0.20570        17.20733       -12.94215
   H       -3.15702        21.28671       -12.81272
   H        0.91700        23.11206       -15.08655
   H       -4.27188        23.80215       -13.34757
*
