# ORCA input file
# SCF done       -162.956920340757          0.000384343136
! CAM-B3LYP def2-SVP def2/J RIJCOSX Grid4 TightSCF
%maxcore 5000
%tddft
    Mode sTDDFT
    Ethresh 5.0
    maxcore 5000
end

%pal
  nprocs 6
  end
* xyz 0 1
   C       -1.48706        -1.86327        -0.33327
   C       -0.93407        -2.22813        -1.53826
   C       -0.13842        -3.37514        -1.72918
   N        0.52461        -4.28680        -1.95013
   C       -1.05888        -1.50621        -2.74111
   N       -1.11431        -0.97428        -3.75825
   C       -1.36648        -2.60929         0.91368
   C       -2.01604        -1.88867         1.94637
   C       -2.08297        -2.34304         3.23983
   C       -1.49087        -3.57757         3.52899
   C       -0.84348        -4.29058         2.49245
   C       -0.76767        -3.82611         1.18519
   S       -0.17776        -5.78951         3.06719
   C       -0.77292        -5.44346         4.66941
   C       -1.43473        -4.26675         4.77139
  Br       -0.46183        -6.66747         6.05568
   C       -2.56325        -0.63529         1.39602
   O       -2.98183         0.31061         2.02380
   C       -2.31629        -0.70650        -0.07315
   C       -2.73652         0.23122        -0.97072
   C       -3.77298         1.16079        -0.70887
   O       -3.84477         2.30591        -1.44651
   C       -4.87752         1.11374         0.12352
   C       -5.62796         0.26760         1.05935
   O       -5.43947        -0.85581         1.44711
   N       -6.73395         1.04948         1.38847
   C       -6.81745         2.27520         0.73230
   O       -7.70471         3.07722         0.86834
   C       -5.61819         2.29444        -0.10967
   C       -4.94802         3.01017        -1.08552
   C       -5.27316         4.24939        -1.69935
   C       -4.55420         4.80637        -2.69938
   C       -4.93522         6.03101        -3.32863
   C       -4.33274         6.61923        -4.37782
   C       -3.10694         6.11396        -5.06313
   C       -4.92200         7.88146        -4.96440
   N       -4.04424         9.02281        -4.83943
   C       -3.20911         9.48681        -5.79528
   C       -3.05904         8.99235        -7.05433
   C       -2.22443         9.57471        -8.02427
   C       -2.01414         9.03001        -9.26533
   C       -1.23320         9.54297       -10.32617
   C       -1.20925         8.75753       -11.44103
   C       -1.96036         7.56971       -11.32179
   S       -2.72275         7.49029        -9.75094
   C       -2.11076         6.54978       -12.24395
   C       -1.59451         6.44587       -13.54904
   C       -1.91832         5.28075       -14.18228
   C       -2.70345         4.38715       -13.41677
   S       -3.03162         5.11073       -11.85291
   C       -3.11434         3.14409       -13.84198
   C       -3.84920         2.14589       -13.19746
   S       -4.10241         0.64795       -14.09853
   C       -4.99005        -0.13901       -12.82704
   C       -5.09287         0.73277       -11.74764
   C       -4.46345         1.99640       -11.94972
   N       -4.67367         2.69502       -10.80777
   N       -5.37241         1.98142        -9.91291
   C       -5.63581         0.81363       -10.44036
   C       -5.49862        -1.46475       -12.92842
   C       -5.36050        -2.25940       -13.99370
   H       -2.58723        -1.76997         4.00147
   H       -0.26233        -4.40742         0.43223
   H       -1.86717        -3.89823         5.68364
   H       -2.30133         0.28750        -1.95898
   H       -7.44087         0.73494         2.03773
   H       -6.16772         4.72176        -1.31930
   H       -3.67405         4.28831        -3.04988
   H       -5.82594         6.49457        -2.92135
   H       -2.58885         5.36357        -4.47606
   H       -2.41964         6.93387        -5.26626
   H       -3.37757         5.67143        -6.02273
   H       -5.86207         8.12169        -4.45846
   H       -5.13568         7.72951        -6.02489
   H       -3.93702         9.38791        -3.90678
   H       -2.63336        10.35423        -5.49892
   H       -3.58739         8.10092        -7.35903
   H       -1.71729        10.50091        -7.78888
   H       -0.71353        10.48064       -10.23372
   H       -0.66649         8.99564       -12.33830
   H       -1.00082         7.22738       -13.98820
   H       -1.60874         5.03018       -15.18166
   H       -2.79859         2.88556       -14.84596
   H       -4.37416         3.62615       -10.57329
   H       -6.19018         0.07849        -9.89353
   H       -6.02691        -1.81240       -12.04974
   H       -4.83595        -1.92732       -14.87438
   H       -5.76468        -3.25522       -14.01071
*
