# ORCA input file
# SCF done       -204.730741952692          0.000466894445
! CAM-B3LYP def2-SVP def2/J RIJCOSX Grid4 TightSCF
%maxcore 5000
%tddft
    Mode sTDDFT
    Ethresh 5.0
    maxcore 5000
end

%pal
  nprocs 6
  end
* xyz 0 1
   C       -3.62912         1.71826         1.92736
   C       -2.79733         2.05123         0.89140
   C       -1.69180         1.27502         0.48306
   N       -0.78304         0.68639         0.10228
   C       -2.90852         3.21342         0.09921
   N       -2.92754         4.13598        -0.58457
   C       -3.49309         0.54795         2.78369
   C       -4.48317         0.60334         3.79513
   C       -4.61076        -0.36407         4.76240
   C       -3.71727        -1.43916         4.73176
   C       -2.73235        -1.48884         3.71541
   C       -2.60431        -0.51137         2.73724
   S       -1.73542        -2.90435         3.86106
   C       -2.63975        -3.40160         5.26662
   C       -3.63860        -2.55379         5.61030
  Br       -2.18146        -4.99307         6.14593
   C       -5.29743         1.82270         3.62757
   O       -6.21724         2.17295         4.33301
   C       -4.77366         2.48308         2.40114
   C       -5.38587         3.49686         1.73704
   C       -6.47688         4.28450         2.25170
   C       -6.42190         4.80006         3.51800
   S       -7.73142         5.81156         3.93363
   C       -8.46517         5.50300         2.38803
   C       -7.68100         4.68694         1.55990
   C       -8.17158         4.33447         0.28152
   C       -7.29292         3.51019        -0.62052
   C       -6.33993         4.39786        -1.42658
   C       -9.42371         4.77074        -0.13649
   C       -9.91676         4.43080        -1.52011
   C      -10.63853         3.07886        -1.56007
   C      -10.23322         5.54988         0.72671
   C      -11.56561         6.09462         0.55401
   C      -11.92764         6.88604         1.60909
   S      -10.76794         6.98788         2.86484
   C       -9.70721         5.94580         1.96764
   C      -12.49767         5.78560        -0.50065
   C      -13.54686         6.54125        -0.88041
   C      -14.44854         6.10828        -1.90158
   S      -16.02446         6.83466        -2.08228
   C      -16.47433         5.74422        -3.37856
   C      -15.37526         4.92689        -3.68205
   C      -14.26897         5.12258        -2.83718
   N      -15.24462         4.10534        -4.81449
   O      -16.09904         4.18645        -5.69012
   O      -14.27017         3.37269        -4.87774
   C      -17.80551         5.79673        -3.81949
   C      -18.58191         4.81506        -4.39100
   C      -19.95674         4.97396        -4.72348
   C      -20.56258         3.83603        -5.15369
   C      -19.70012         2.71302        -5.16810
   S      -18.09464         3.16745        -4.67182
   C      -19.99201         1.40956        -5.53095
   C      -21.22632         0.87835        -5.96775
   C      -21.17945        -0.45503        -6.24545
   C      -19.90760        -1.04237        -6.04134
   S      -18.77327         0.15902        -5.47502
   C      -19.57667        -2.36843        -6.23322
   C      -18.29358        -2.87408        -6.03546
   C      -17.86362        -4.17547        -6.15381
   C      -18.57114        -5.42253        -6.26858
   C      -19.82335        -5.71428        -5.77998
   C      -20.43232        -6.97972        -5.88842
   N      -20.98433        -7.98416        -5.96462
   C      -20.60490        -4.82821        -5.01279
   N      -21.26780        -4.16902        -4.34535
   C      -17.63137        -6.40870        -6.80229
   C      -16.33313        -5.84007        -6.80812
   C      -16.41597        -4.44265        -6.33337
   O      -15.50489        -3.66359        -6.16310
   C      -15.22465        -6.53377        -7.22597
   C      -15.40695        -7.84781        -7.67170
   C      -16.70850        -8.40144        -7.67504
   C      -17.82992        -7.70222        -7.24260
   S      -16.70827       -10.03095        -8.27838
   C      -14.98192        -9.94867        -8.51042
   C      -14.43248        -8.76300        -8.15677
  Br      -14.06949       -11.43491        -9.20123
   H       -5.37585        -0.29151         5.51941
   H       -1.84101        -0.59715         1.98214
   H       -4.29393        -2.70682         6.44820
   H       -5.01529         3.76727         0.75908
   H       -5.61989         4.67664         4.21901
   H       -7.88783         2.91231        -1.30739
   H       -6.72359         2.80844        -0.00677
   H       -6.89524         5.01009        -2.13333
   H       -5.63135         3.78920        -1.98340
   H       -5.78190         5.07144        -0.78054
   H       -9.08101         4.40428        -2.21768
   H      -10.58039         5.22470        -1.86368
   H       -9.94255         2.26339        -1.37905
   H      -11.09613         2.92265        -2.53470
   H      -11.40889         3.01634        -0.79416
   H      -12.86947         7.38106         1.74239
   H      -12.38057         4.82893        -0.97832
   H      -13.75344         7.49677        -0.42122
   H      -13.36018         4.56616        -2.97404
   H      -18.32609         6.71597        -3.57688
   H      -20.44544         5.92786        -4.63262
   H      -21.59203         3.77222        -5.45626
   H      -22.10591         1.48823        -6.06799
   H      -22.01640        -1.03873        -6.58473
   H      -20.36488        -3.01888        -6.58306
   H      -17.50216        -2.15403        -5.84651
   H      -14.24709        -6.07802        -7.21187
   H      -18.80246        -8.16505        -7.26907
   H      -13.38412        -8.53977        -8.23500
*
