# ORCA input file
# SCF done       -170.165094222720          0.000677537927
! CAM-B3LYP def2-SVP def2/J RIJCOSX Grid4 TightSCF
%maxcore 5000
%tddft
    Mode sTDDFT
    Ethresh 5.0
    maxcore 5000
end

%pal
  nprocs 6
  end
* xyz 0 1
   C       -1.09068         0.51162         2.64730
   C       -1.40998        -0.82319         2.78593
   C       -0.53435        -1.79460         3.30530
   N        0.12768        -2.63805         3.71987
   C       -2.63612        -1.41905         2.43585
   N       -3.59896        -1.99382         2.18046
   C        0.19408         1.10551         3.01981
   C        0.15273         2.48954         2.72627
   C        1.21102         3.33006         2.96331
   C        2.37152         2.77795         3.51886
   C        2.40361         1.39561         3.80874
   C        1.33020         0.54441         3.56830
   S        3.93132         0.92027         4.48929
   C        4.49707         2.56568         4.37476
   C        3.59166         3.42716         3.85546
  Br        6.23138         2.99050         4.95257
   C       -1.17067         2.82346         2.15352
   O       -1.53502         3.92751         1.79233
   C       -1.92122         1.55774         2.12334
   C       -3.22374         1.42633         1.66145
   C       -3.99536         2.45602         1.15453
   C       -5.30249         2.27727         0.71337
   C       -6.15636         3.25755         0.18458
   C       -7.40056         2.78726        -0.15972
   C       -7.56823         1.41941         0.08653
   S       -6.11665         0.73070         0.76151
   C       -8.70751         0.63669        -0.14007
   C       -9.94389         1.03934        -0.65204
   C      -10.86159         0.01543        -0.73981
   C      -10.37670        -1.21973        -0.30464
   S       -8.72032        -1.06562         0.22700
   C      -11.06909        -2.43661        -0.28045
   C      -10.53283        -3.62553         0.13357
   C      -11.21238        -4.84954         0.14690
   C      -10.69135        -6.08959         0.52099
   C      -11.58709        -7.13078         0.41089
   C      -12.84612        -6.73807        -0.04802
   S      -12.88103        -5.01836        -0.34020
   C      -13.96762        -7.54362        -0.27825
   C      -14.06359        -8.93440        -0.15835
   C      -15.30322        -9.42896        -0.48035
   C      -16.23343        -8.44665        -0.85619
   S      -15.48928        -6.86583        -0.79545
   C      -17.55076        -8.68111        -1.22830
   C      -18.51659        -7.75064        -1.56507
   S      -18.24921        -6.03025        -1.53268
   C      -19.89306        -5.65434        -1.96245
   C      -20.62139        -6.84016        -2.20258
   C      -19.85569        -8.01895        -1.96292
   C      -20.43029        -9.28174        -2.14373
   C      -21.72730        -9.37080        -2.57810
   F      -22.28893       -10.57780        -2.75603
   C      -22.47003        -8.21217        -2.86441
   F      -23.72430        -8.33291        -3.33223
   C      -21.93523        -6.96481        -2.68663
   C      -20.25792        -4.29127        -1.97232
   C      -21.50956        -3.76161        -1.94039
   C      -21.74137        -2.35630        -1.92409
   C      -22.95116        -1.76466        -1.85913
   C      -24.24454        -2.51218        -1.78027
   C      -23.07497        -0.26485        -1.87605
   N      -23.86805         0.18642        -0.75729
   C      -24.60944         1.34361        -0.81828
   C      -25.02285         2.04000         0.23382
   H        1.14814         4.38106         2.72835
   H        1.40652        -0.50271         3.80831
   H        3.77353         4.47706         3.71442
   H       -3.67942         0.44444         1.69870
   H       -3.57688         3.45030         1.09465
   H       -5.83938         4.27878         0.07053
   H       -8.18055         3.39707        -0.57883
   H      -10.14516         2.05411        -0.94351
   H      -11.86492         0.13524        -1.10892
   H      -12.09623        -2.41633        -0.62363
   H       -9.50375        -3.64510         0.46985
   H       -9.67600        -6.20070         0.85775
   H      -11.35383        -8.15115         0.65503
   H      -13.23447        -9.54473         0.15001
   H      -15.56259       -10.47243        -0.45175
   H      -17.84978        -9.72049        -1.24506
   H      -19.87539       -10.18688        -1.96000
   H      -22.52277        -6.10469        -2.95583
   H      -19.42080        -3.60317        -1.93957
   H      -22.37058        -4.40625        -1.88511
   H      -20.85933        -1.72969        -1.97672
   H      -24.19832        -3.31315        -1.04560
   H      -24.48448        -2.95546        -2.74759
   H      -25.04712        -1.83348        -1.50370
   H      -23.59692         0.03672        -2.79198
   H      -22.07494         0.19622        -1.89203
   H      -23.46930        -0.01413         0.14908
   H      -24.89726         1.62744        -1.82227
   H      -24.74806         1.76699         1.23817
   H      -25.66357         2.89288         0.11903
*
