# ORCA input file
# SCF done       -184.782208278084          0.000473172011
! CAM-B3LYP def2-SVP def2/J RIJCOSX Grid4 TightSCF
%maxcore 5000
%tddft
    Mode sTDDFT
    Ethresh 5.0
    maxcore 5000
end

%pal
  nprocs 6
  end
* xyz 0 1
   C       -4.56730        -5.17001         1.60258
   C       -5.67606        -5.55052         2.31146
   C       -5.66213        -6.60206         3.25362
   N       -5.69734        -7.41204         4.06616
   C       -6.94191        -4.93187         2.29623
   N       -8.00680        -4.50412         2.36080
   C       -3.27567        -5.83903         1.67278
   C       -2.29673        -4.99362         1.09920
   C       -0.96896        -5.34105         1.04545
   C       -0.60022        -6.59594         1.54384
   C       -1.59867        -7.45409         2.06015
   C       -2.93608        -7.09178         2.14487
   S       -0.93730        -8.97523         2.57569
   C        0.65825        -8.42745         2.14143
   C        0.69381        -7.18278         1.61036
  Br        2.12878        -9.54259         2.47232
   C       -2.95539        -3.77377         0.57814
   O       -2.39610        -2.79105         0.13310
   C       -4.40292        -3.98837         0.77105
   C       -5.42942        -3.19085         0.35915
   C       -5.43453        -2.01962        -0.44845
   C       -4.74904        -1.72400        -1.62054
   C       -3.74716        -2.50407        -2.38016
   N       -5.24570        -0.55446        -2.09462
   C       -6.22158        -0.05610        -1.27703
   C       -6.87786         1.24571        -1.55789
   C       -6.38033        -0.94246        -0.23343
   C       -7.21517        -0.81680         0.92649
   C       -6.88243        -1.42678         2.08328
   C       -7.64197        -1.57727         3.26968
   S       -9.31565        -1.14206         3.36924
   C       -9.46889        -1.93096         4.89283
   C       -8.32219        -2.52224         5.30877
   C       -8.18493        -3.28933         6.58027
   C       -7.23998        -2.30241         4.39846
   C       -5.92505        -2.81898         4.60008
   C       -4.78495        -2.22619         4.14224
   C       -3.48092        -2.76546         4.15496
   C       -3.10270        -4.02955         4.52706
   C       -1.77361        -4.45370         4.45463
   C       -1.30702        -5.68595         4.85246
   C        0.03058        -6.13580         4.79856
   C        0.21191        -7.40456         5.26557
   C       -0.97646        -8.02017         5.71215
   S       -2.33385        -6.93899         5.53028
   C       -1.11506        -9.29945         6.23058
   C       -0.12065       -10.28990         6.34735
   C       -0.56583       -11.44528         6.92371
   C       -1.92660       -11.41516         7.29544
   S       -2.63714        -9.88079         6.86410
   C       -2.61153       -12.41443         7.96546
   C       -3.94498       -12.32692         8.33808
   C       -4.66386       -13.21809         9.11189
   C       -4.24483       -14.28909         9.96892
   C       -3.02985       -14.42312        10.60625
   C       -2.70264       -15.49538        11.45651
   N       -2.36961       -16.35743        12.13982
   C       -2.00792       -13.45503        10.59027
   N       -1.15822       -12.68466        10.66347
   C       -5.42200       -15.11402        10.24868
   C       -6.56638       -14.45297         9.73871
   C       -6.13942       -13.21241         9.05236
   O       -6.85005       -12.38382         8.52331
   C       -7.83556       -14.95306         9.88751
   C       -7.98282       -16.17103        10.56205
   C       -6.83311       -16.83064        11.05188
   C       -5.54755       -16.31966        10.90896
   S       -7.24089       -18.32363        11.84395
   C       -8.92948       -18.04010        11.51439
   C       -9.17713       -16.89064        10.84449
  Br      -10.20661       -19.29022        12.08731
   H       -0.23583        -4.67313         0.62056
   H       -3.65971        -7.77555         2.55614
   H        1.59447        -6.69508         1.28456
   H       -6.42083        -3.47544         0.69544
   H       -3.99195        -3.56453        -2.35848
   H       -2.76473        -2.38931        -1.91662
   H       -3.69684        -2.16766        -3.41353
   H       -4.92998        -0.10629        -2.94067
   H       -7.11752         1.33431        -2.61701
   H       -6.22438         2.07651        -1.28723
   H       -7.79431         1.33409        -0.98224
   H       -8.10563        -0.20739         0.85653
   H       -5.92243        -1.92308         2.11515
   H      -10.41820        -1.91670         5.39128
   H       -9.11605        -3.26644         7.13985
   H       -7.39118        -2.87004         7.19713
   H       -7.93551        -4.32829         6.36517
   H       -5.85620        -3.73551         5.17155
   H       -4.86402        -1.22441         3.74055
   H       -2.69755        -2.10843         3.79613
   H       -3.83344        -4.73586         4.89885
   H       -1.04145        -3.75971         4.06043
   H        0.81826        -5.50745         4.42122
   H        1.16315        -7.90406         5.30837
   H        0.88670       -10.13690         6.00404
   H        0.04683       -12.30925         7.10843
   H       -2.04767       -13.30703         8.19530
   H       -4.52859       -11.50897         7.92556
   H       -8.69035       -14.42278         9.49785
   H       -4.70169       -16.86135        11.29848
   H      -10.15975       -16.56056        10.56053
*
