# ORCA input file
# SCF done       -174.293095011860          0.000736337047
! CAM-B3LYP def2-SVP def2/J RIJCOSX Grid4 TightSCF
%maxcore 5000
%tddft
    Mode sTDDFT
    Ethresh 5.0
    maxcore 5000
end

%pal
  nprocs 6
  end
* xyz 0 1
   C       -3.09511        -0.53398         2.16413
   C       -4.18824        -0.18112         2.92203
   C       -4.56714        -0.82736         4.11485
   N       -4.92630        -1.30604         5.09578
   C       -5.07310         0.87376         2.62781
   N       -5.83687         1.71545         2.45663
   C       -2.18520        -1.63594         2.45236
   C       -1.17319        -1.66803         1.46118
   C       -0.16705        -2.60151         1.45829
   C       -0.16384        -3.56086         2.47734
   C       -1.17809        -3.52214         3.46266
   C       -2.19178        -2.57190         3.47049
   S       -0.98352        -4.79460         4.63035
   C        0.43675        -5.35502         3.78789
   C        0.75152        -4.62792         2.69015
  Br        1.37154        -6.84414         4.44048
   C       -1.39212        -0.56769         0.50363
   O       -0.62014        -0.18144        -0.34453
   C       -2.66853         0.07548         0.92510
   C       -3.24153         1.13690         0.28485
   C       -2.95964         1.49920        -1.05389
   O       -3.22863         2.77184        -1.46582
   C       -2.54618         0.76877        -2.15469
   C       -2.21976        -0.57894        -2.63412
   O       -2.21691        -1.64643        -2.07903
   N       -1.96040        -0.38635        -3.99110
   C       -2.14012         0.91317        -4.45683
   O       -1.98859         1.27091        -5.59625
   C       -2.54722         1.65247        -3.25835
   C       -2.97128         2.88421        -2.79459
   C       -3.17138         4.11407        -3.47888
   C       -3.60029         5.23995        -2.86711
   C       -3.83609         6.46673        -3.56126
   C       -4.22797         7.61767        -2.98866
   C       -4.43386         7.79727        -1.51683
   C       -4.51658         8.85387        -3.81141
   N       -4.72508         8.61457        -5.21047
   C       -3.80020         8.81973        -6.17134
   C       -3.95124         8.43748        -7.46792
   C       -3.01575         8.72622        -8.47576
   C       -3.16106         8.37281        -9.79305
   C       -2.27591         8.65405       -10.86018
   C       -2.69426         8.19325       -12.07229
   C       -3.93161         7.51377       -12.03355
   S       -4.55424         7.48089       -10.40189
   C       -4.62012         6.92849       -13.08073
   C       -4.25575         6.89598       -14.44310
   C       -5.15327         6.23579       -15.22206
   C       -6.27630         5.70290       -14.52655
   S       -6.13602         6.08432       -12.82241
   C       -7.27066         5.01991       -15.17757
   C       -8.46233         4.39112       -14.72851
   C       -9.30957         3.78785       -15.68257
   O       -8.90397         3.91909       -16.97754
   C       -9.21964         2.94640       -17.95178
   C      -10.52616         3.14575       -15.30529
   O      -11.29554         2.66629       -16.32718
   C      -12.51131         2.03038       -16.01603
   C      -10.89887         3.04174       -13.98379
   C      -10.07635         3.61137       -13.00636
   C       -8.86812         4.30088       -13.36970
   N       -8.24055         4.77933       -12.30646
   S       -9.07655         4.40258       -10.97633
   N      -10.28563         3.61103       -11.69095
   H        0.58732        -2.59866         0.68775
   H       -2.93962        -2.58382         4.24556
   H        1.59380        -4.83338         2.05508
   H       -3.97698         1.75190         0.78499
   H       -1.68933        -1.14591        -4.59921
   H       -2.96059         4.09005        -4.53826
   H       -3.79286         5.20594        -1.80496
   H       -3.68493         6.43405        -4.63283
   H       -3.67764         7.26853        -0.94365
   H       -5.41017         7.41175        -1.22150
   H       -4.39495         8.85132        -1.25173
   H       -3.68545         9.55965        -3.70091
   H       -5.41283         9.33662        -3.40095
   H       -5.52104         8.04316        -5.45442
   H       -2.91847         9.36236        -5.85817
   H       -4.83992         7.89237        -7.75746
   H       -2.12217         9.27225        -8.20275
   H       -1.35817         9.19180       -10.69787
   H       -2.14726         8.32006       -12.98921
   H       -3.35627         7.35602       -14.81231
   H       -5.05284         6.10820       -16.28592
   H       -7.12424         4.94185       -16.24747
   H       -9.13237         1.93338       -17.55384
   H       -8.48303         3.08839       -18.74392
   H      -10.22195         3.09134       -18.35849
   H      -12.94005         1.74136       -16.97444
   H      -13.19840         2.70795       -15.50047
   H      -12.35286         1.13635       -15.40532
   H      -11.80686         2.55622       -13.67333
*
