# ORCA input file
# SCF done       -190.548722778495          0.000416785773
! CAM-B3LYP def2-SVP def2/J RIJCOSX Grid4 TightSCF
%maxcore 5000
%tddft
    Mode sTDDFT
    Ethresh 5.0
    maxcore 5000
end

%pal
  nprocs 6
  end
* xyz 0 1
   C        5.45753       -11.55857       -14.40998
   C        6.42757       -12.01700       -13.60907
   C        7.59224       -12.78103       -13.95725
   C        8.39052       -13.10105       -12.91425
   C        7.93517       -12.62174       -11.65450
   S        6.43674       -11.73827       -11.85994
   C        8.50418       -12.77181       -10.41438
   C        9.69927       -13.44625       -10.05919
   C        9.97801       -13.40362        -8.72993
   C        9.02395       -12.69424        -7.95282
   S        7.75087       -12.08229        -8.98710
   C        9.04127       -12.48370        -6.59849
   C        8.04296       -11.75951        -5.92708
   O        7.00098       -11.23793        -6.63778
   C        7.86095       -11.42377        -4.59402
   C        8.42919       -11.54937        -3.25511
   O        9.42752       -12.09780        -2.85951
   N        7.52373       -10.85722        -2.45046
   C        6.43441       -10.29948        -3.12044
   O        5.55065        -9.66938        -2.59659
   C        6.66273       -10.67262        -4.51527
   C        6.15229       -10.57436        -5.79962
   C        4.99607        -9.95206        -6.31627
   C        4.68474        -9.99667        -7.64181
   C        3.55865        -9.41897        -8.24781
   S        2.33020        -8.50291        -7.39758
   C        1.36634        -8.21406        -8.82239
   C        1.98103        -8.80595        -9.92750
   C        3.19735        -9.46663        -9.59166
   N        3.68317        -9.98819       -10.74049
   N        2.87439        -9.71154       -11.77654
   C        1.86126        -9.01594       -11.32702
   C        0.16017        -7.48034        -8.70749
   C       -0.67403        -7.21816        -9.73808
   C       -1.94450        -6.54715        -9.58217
   C       -2.68795        -6.75375        -8.45388
   S       -4.22577        -5.99566        -8.44964
   C       -3.89261        -5.32587       -10.01556
   C       -2.63187        -5.68410       -10.52040
   C       -2.22420        -5.14282       -11.76297
   C       -0.85838        -5.48622       -12.29766
   C       -0.90588        -6.72835       -13.19256
   C       -3.07381        -4.31290       -12.48640
   C       -2.64704        -3.74604       -13.81491
   C       -1.99527        -2.36942       -13.64861
   C       -4.34987        -3.97222       -11.97660
   C       -5.42642        -3.18221       -12.54153
   C       -6.53614        -3.19414       -11.73383
   S       -6.35673        -4.06234       -10.27584
   C       -4.74118        -4.50774       -10.74040
   C       -5.43678        -2.40486       -13.74995
   C       -6.55270        -2.16656       -14.48513
   C       -6.50491        -1.36503       -15.64762
   C       -7.57828        -1.06251       -16.43867
   C       -7.56328        -0.27662       -17.65725
   C       -6.46129         0.22163       -18.30542
   C       -6.51639         0.97760       -19.49483
   N       -6.49156         1.59938       -20.45970
   C       -5.12207         0.04181       -17.90250
   N       -4.00669        -0.06921       -17.65009
   C       -8.94337        -0.13315       -18.10903
   C       -9.79017        -0.84134       -17.22185
   C       -8.97770        -1.45680       -16.15331
   O       -9.39525        -2.12974       -15.23339
   C      -11.15258        -0.90062       -17.38468
   C      -11.70950        -0.22603       -18.47596
   C      -10.85675         0.48134       -19.35644
   C       -9.47848         0.53958       -19.19231
   S      -11.75141         1.24498       -20.63594
   C      -13.23767         0.61357       -19.97823
   C      -13.07519        -0.13236       -18.85977
  Br      -14.86329         0.99553       -20.83232
   H        5.48872       -11.74764       -15.46856
   H        4.62659       -10.99345       -14.02738
   H        7.77736       -13.05748       -14.98002
   H        9.30024       -13.66913       -12.99653
   H       10.31303       -13.93925       -10.79188
   H       10.83862       -13.85636        -8.27031
   H        9.84633       -12.87937        -5.99993
   H        7.64789       -10.76710        -1.45249
   H        4.36632        -9.44010        -5.60436
   H        5.35302       -10.52775        -8.30861
   H        4.52413       -10.52242       -10.88732
   H        1.09496        -8.69748       -12.00305
   H       -0.06925        -7.10790        -7.71842
   H       -0.41403        -7.58538       -10.71564
   H       -2.42318        -7.37683        -7.62216
   H       -0.45116        -4.65192       -12.86644
   H       -0.18112        -5.65537       -11.46017
   H        0.09667        -6.99429       -13.52162
   H       -1.51669        -6.54713       -14.07392
   H       -1.34366        -7.57327       -12.66484
   H       -3.52014        -3.67617       -14.46465
   H       -1.94409        -4.41040       -14.31246
   H       -2.62116        -1.70622       -13.05529
   H       -1.82029        -1.91305       -14.62039
   H       -1.04068        -2.45918       -13.13489
   H       -7.45320        -2.66633       -11.91000
   H       -4.51435        -1.94634       -14.07183
   H       -7.49802        -2.61226       -14.21773
   H       -5.53374        -0.97064       -15.91855
   H      -11.76955        -1.45001       -16.69095
   H       -8.87371         1.09346       -19.89053
   H      -13.88359        -0.59770       -18.32598
*
