# ORCA input file
# SCF done       -176.018464341877          0.000447258909
! CAM-B3LYP def2-SVP def2/J RIJCOSX Grid4 TightSCF
%maxcore 5000
%tddft
    Mode sTDDFT
    Ethresh 5.0
    maxcore 5000
end

%pal
  nprocs 6
  end
* xyz 0 1
   C        8.31272        -5.06120        -1.53010
   C        7.56914        -5.85669        -2.38541
   C        6.12582        -5.87801        -2.31573
   N        5.44907        -6.72819        -3.08040
   C        6.07828        -7.51403        -3.92970
   C        7.50288        -7.43214        -4.05099
   N        8.20459        -6.63549        -3.28962
   C        8.16378        -8.23927        -5.01372
   N        8.65479        -8.90525        -5.80517
   C        5.30020        -8.41932        -4.68296
   N        4.64024        -9.14523        -5.27694
   C        5.37457        -5.02606        -1.45510
   C        6.16056        -4.31411        -0.51479
   C        7.61236        -4.33276        -0.57353
   N        8.15999        -3.61600         0.41281
   S        6.99720        -3.02511         1.34112
   N        5.73395        -3.61863         0.53920
   C        3.95715        -5.01498        -1.57619
   S        3.20194        -6.38703        -2.34478
   C        2.99428        -4.06136        -1.21448
   C        3.34969        -2.67899        -0.77421
   C        4.03808        -1.89954        -1.90486
   N        4.23753        -0.52990        -1.47164
   C        1.67617        -4.47425        -1.45602
   C        0.46638        -3.67569        -1.10072
   C       -0.02890        -4.02531         0.32765
   N        0.86993        -3.67834         1.40126
   C        1.60341        -5.75584        -2.01387
   C        0.50573        -6.54961        -2.37498
   S       -1.17614        -6.16110        -2.05792
   C       -1.80264        -7.65090        -2.72319
   C       -0.73543        -8.42177        -3.19629
   C        0.53184        -7.80274        -3.00308
   N        1.44992        -8.65281        -3.51712
   N        0.86763        -9.74543        -4.02270
   C       -0.42480        -9.64237        -3.84692
   C       -3.18987        -7.87289        -2.70300
   C       -3.76583        -9.05760        -3.05695
   C       -5.13310        -9.41707        -3.09763
   S       -5.45136       -11.11195        -3.33139
   C       -6.32821        -8.69989        -3.01256
   C       -6.39557        -7.24258        -2.68711
   C       -6.28096        -7.01702        -1.16951
   N       -6.35211        -5.59489        -0.89176
   C       -7.47009        -9.50492        -3.18885
   C       -8.85238        -8.93883        -3.15142
   C       -9.20397        -8.20426        -4.45727
   N      -10.50491        -7.57446        -4.31196
   C       -7.16714       -10.85521        -3.34851
   C       -7.99190       -12.03303        -3.39398
   C       -9.20600       -12.16532        -4.10653
   C       -9.99311       -13.38087        -4.04186
   N      -11.17614       -13.45368        -4.69210
   C      -11.55648       -12.44825        -5.42949
   C      -10.72236       -11.28694        -5.58124
   N       -9.59923       -11.17174        -4.91583
   C      -11.12451       -10.24087        -6.44588
   N      -11.49319        -9.40041        -7.13315
   C      -12.80703       -12.49950        -6.09790
   N      -13.80935       -12.49425        -6.65169
   C       -9.57321       -14.49336        -3.32697
   C       -8.35263       -14.40612        -2.67137
   C       -7.56490       -13.19185        -2.70895
   N       -6.44239       -13.31698        -1.99580
   S       -6.37819       -14.78963        -1.36930
   N       -7.75828       -15.35930        -1.94258
   H        9.38722        -5.04646        -1.57724
   H        4.01968        -2.71837         0.08420
   H        2.46383        -2.11739        -0.48736
   H        3.38630        -1.88012        -2.78402
   H        4.97117        -2.41469        -2.19178
   H        4.61817         0.03470        -2.22221
   H        4.88842        -0.49778        -0.69378
   H       -0.33724        -3.88023        -1.80902
   H        0.68146        -2.60782        -1.15091
   H       -0.21404        -5.10096         0.38808
   H       -0.97504        -3.50729         0.50255
   H        1.03467        -2.67844         1.43095
   H        1.76529        -4.14120         1.28962
   H        2.44803        -8.54077        -3.60298
   H       -1.07599       -10.42048        -4.18833
   H       -3.78082        -7.04534        -2.34757
   H       -3.09493        -9.86412        -3.32040
   H       -7.34038        -6.81196        -3.00839
   H       -5.59728        -6.70623        -3.20192
   H       -5.36493        -7.50117        -0.78878
   H       -7.13170        -7.49461        -0.67593
   H       -5.53359        -5.11499        -1.25114
   H       -6.40303        -5.42286         0.10522
   H       -8.94438        -8.22897        -2.32824
   H       -9.58049        -9.73357        -2.98997
   H       -9.14484        -8.91726        -5.29166
   H       -8.47727        -7.41145        -4.64928
   H      -11.22805        -8.27895        -4.20503
   H      -10.72982        -7.04122        -5.14464
   H      -10.17616       -15.38419        -3.29611
*
