# ORCA input file
# SCF done       -197.356661194743          0.000671096411
! CAM-B3LYP def2-SVP def2/J RIJCOSX Grid4 TightSCF
%maxcore 5000
%tddft
    Mode sTDDFT
    Ethresh 5.0
    maxcore 5000
end

%pal
  nprocs 6
  end
* xyz 0 1
   C        5.27542         0.73814         1.83468
   C        3.90941         0.47725         1.90719
   C        3.39967        -0.86925         1.82387
   N        2.07978        -1.10677         1.96022
   C        1.27233        -0.09143         2.09907
   C        1.77459         1.26087         2.12424
   N        3.05173         1.50901         2.05353
   C        0.85716         2.33615         2.25582
   N        0.08481         3.17326         2.36997
   C       -0.11731        -0.33717         2.24179
   N       -1.24242        -0.51477         2.35886
   C        4.25853        -1.96069         1.62828
   C        5.62348        -1.69417         1.54298
   C        6.13051        -0.33948         1.65887
   N        7.46848        -0.31286         1.55564
   S        7.99972        -1.79751         1.33604
   N        6.60830        -2.57898         1.33842
   C        3.71632        -3.31230         1.57628
   C        2.67477        -3.67939         0.71444
   C        2.14509        -2.77153        -0.32800
   O        2.62537        -1.74995        -0.72403
   S        0.65514        -3.48001        -1.00232
   C        0.83103        -5.00659        -0.05898
   O       -0.00241        -5.85881        -0.08223
   C        2.06985        -4.93662         0.74774
   C        2.52744        -5.96540         1.60335
   C        3.55989        -5.57408         2.47175
   C        4.12430        -4.30396         2.46536
   C        5.11786        -4.25347         3.56590
   O        5.78471        -3.34825         3.96124
   O        5.14127        -5.49859         4.13963
   C        4.23082        -6.34498         3.54128
   O        4.07544        -7.47169         3.89529
   C        2.00014        -7.30033         1.65035
   C        1.60515        -8.01025         0.57312
   C        1.01219        -9.29576         0.64251
   C        0.61474       -10.07454        -0.42122
   C        0.66793        -9.98279        -1.89025
   O        1.19658        -9.16388        -2.59990
   N       -0.05375       -11.08325        -2.33135
   C       -0.28335       -11.37308        -3.72495
   C       -0.59432       -11.85330        -1.30498
   O       -1.36995       -12.76231        -1.48023
   C       -0.08080       -11.24633        -0.06585
   C       -0.20529       -11.41446         1.30265
   S        0.52180       -10.06489         2.14003
   C       -0.84620       -12.45290         2.02657
   C       -1.04820       -13.74144         1.48222
   C       -1.96337       -14.68951         2.07117
   N       -2.20058       -15.83038         1.42651
   C       -1.56480       -16.10510         0.30617
   C       -0.52871       -15.24348        -0.16387
   N       -0.30596       -14.09714         0.42626
   C        0.28284       -15.62125        -1.26248
   N        0.91283       -15.94743        -2.16142
   C       -1.90362       -17.29322        -0.38249
   N       -2.18485       -18.25055        -0.94693
   C       -2.59878       -14.43738         3.32746
   C       -2.17054       -13.23892         3.97477
   C       -1.33734       -12.25827         3.33169
   N       -1.13254       -11.18983         4.09914
   S       -1.89383       -11.40309         5.50082
   N       -2.53485       -12.84420         5.19235
   C       -3.57380       -15.18398         4.00712
   C       -4.39285       -16.24176         3.66108
   C       -4.60584       -16.96317         2.46502
   C       -5.59033       -17.90168         2.54283
   C       -6.21639       -17.98022         3.80854
   S       -5.50049       -16.81817         4.89782
   C       -7.25356       -18.80918         4.18880
   C       -7.91529       -19.77659         3.37998
   C       -8.91414       -20.43400         4.00970
   C       -9.11637       -20.03355         5.37276
   S       -7.94473       -18.77057         5.78794
   C      -10.02627       -20.49825         6.23983
   H        5.64060         1.74911         1.90264
   H        1.99290        -7.77087         2.62528
   H        1.72614        -7.62682        -0.43142
   H        0.11474       -10.54426        -4.30743
   H       -1.35249       -11.48481        -3.90745
   H        0.22079       -12.29994        -4.00383
   H       -3.74671       -14.79800         5.00672
   H       -4.02363       -16.76892         1.58510
   H       -5.87811       -18.53189         1.72094
   H       -7.62494       -19.94695         2.35902
   H       -9.52805       -21.19585         3.56391
   H      -10.72150       -21.26559         5.94819
   H      -10.09240       -20.12419         7.24516
*
