# ORCA input file
# SCF done       -176.395917192063          0.000835559736
! CAM-B3LYP def2-SVP def2/J RIJCOSX Grid4 TightSCF
%maxcore 5000
%tddft
    Mode sTDDFT
    Ethresh 5.0
    maxcore 5000
end

%pal
  nprocs 6
  end
* xyz 0 1
   C        2.74080         0.77480        -1.13178
   C        1.59728         0.11963        -1.57888
   C        1.44886        -1.30977        -1.44339
   N        0.30695        -1.91504        -1.82315
   C       -0.62812        -1.19139        -2.37779
   C       -0.45794         0.22737        -2.56936
   N        0.61406         0.84330        -2.15519
   C       -1.48998         0.96982        -3.20002
   N       -2.34701         1.53384        -3.70837
   C       -1.83341        -1.81787        -2.78271
   N       -2.81695        -2.29763        -3.12165
   C        2.47118        -2.09495        -0.89202
   C        3.62344        -1.43578        -0.46267
   C        3.74969         0.00457        -0.57174
   N        4.93070         0.42708        -0.09595
   S        5.76391        -0.83478         0.40967
   N        4.72222        -1.99486         0.06048
   C        2.31889        -3.53674        -0.75568
   C        2.03212        -4.38510        -1.83067
   C        1.99204        -3.89694        -3.22466
   O        2.29947        -2.81507        -3.63526
   S        1.47391        -5.22911        -4.28252
   C        1.47260        -6.42764        -2.93132
   O        1.19756        -7.57370        -3.13886
   C        1.83382        -5.75457        -1.67177
   C        1.95489        -6.41910        -0.40931
   C        2.29946        -5.54801         0.66348
   C        2.44148        -4.17327         0.47601
   C        2.70136        -3.54857         1.79112
   O        2.77400        -2.39834         2.10168
   O        2.81825        -4.56686         2.69262
   C        2.60595        -5.79029         2.09036
   O        2.71119        -6.79574         2.72893
   C        1.74269        -7.81808        -0.33651
   C        1.57823        -8.59736         0.77268
   C        1.35851        -9.97855         0.71102
   S        1.29052       -10.90389        -0.78427
   C        1.00924       -12.41925         0.03393
   C        0.96951       -12.20391         1.42006
   C        1.16358       -10.84945         1.77694
   S        1.09753       -10.67503         3.49310
   C        0.81701       -12.40767         3.57824
   N        0.77837       -13.04552         2.47055
   C        0.85552       -13.61519        -0.67326
   C        0.63472       -14.81832        -0.05027
   C        0.46042       -16.03630        -0.70121
   S        0.48828       -16.24752        -2.44577
   C        0.17971       -17.97489        -2.38219
   C        0.06790       -18.37021        -1.03435
   C        0.22464       -17.29223        -0.12820
   N        0.09309       -17.80872         1.11314
   N       -0.13398       -19.12967         1.06562
   C       -0.15384       -19.48846        -0.19561
   C        0.07350       -18.69717        -3.56504
   C       -0.19526       -20.04852        -3.64381
   C       -0.32418       -20.71858        -4.85450
   C       -0.62168       -22.06271        -4.99513
   C       -0.83597       -23.04637        -4.00430
   C       -1.13182       -24.28266        -4.49759
   C       -1.17002       -24.34441        -5.90856
   S       -0.80288       -22.77240        -6.58589
   C       -1.45753       -25.43743        -6.70070
   C       -1.77871       -26.75263        -6.26589
   C       -2.02932       -27.62437        -7.26912
   C       -1.92317       -27.05921        -8.58280
   S       -1.48084       -25.34932        -8.44546
   C       -2.11750       -27.67108        -9.75966
   H        2.83207         1.84284        -1.23562
   H        1.65979        -8.32547        -1.28743
   H        1.60262        -8.18396         1.76888
   H        0.68941       -12.87851         4.53324
   H        0.91211       -13.57113        -1.75229
   H        0.58600       -14.82863         1.03064
   H        0.14295       -17.33865         2.00175
   H       -0.32153       -20.51482        -0.45014
   H        0.20117       -18.14290        -4.48550
   H       -0.32263       -20.60051        -2.72592
   H       -0.19625       -20.14583        -5.76356
   H       -0.76799       -22.82421        -2.95484
   H       -1.32464       -25.14449        -3.88441
   H       -1.81378       -27.00516        -5.22117
   H       -2.28988       -28.65911        -7.13571
   H       -2.38796       -28.71146        -9.79910
   H       -2.01330       -27.14874       -10.69290
*
