# ORCA input file
# SCF done       -218.320517236947          0.000646070316
! CAM-B3LYP def2-SVP def2/J RIJCOSX Grid4 TightSCF
%maxcore 5000
%tddft
    Mode sTDDFT
    Ethresh 5.0
    maxcore 5000
end

%pal
  nprocs 6
  end
* xyz 0 1
   C       -2.72909        -2.38730         1.19283
   C       -2.08696        -2.49437         2.39940
   C       -1.19449        -3.53625         2.72793
   N       -0.46831        -4.36285         3.05514
   C       -2.19367        -1.57044         3.46043
   N       -2.21330        -0.85192         4.35613
   C       -2.54330        -3.27331         0.05133
   C       -3.25096        -2.74068        -1.05334
   C       -3.26900        -3.34661        -2.28604
   C       -2.55508        -4.53987        -2.43530
   C       -1.85468        -5.06889        -1.32422
   C       -1.83485        -4.45366        -0.07863
   S       -1.04932        -6.55484        -1.72595
   C       -1.65426        -6.44650        -3.35792
   C       -2.42026        -5.35443        -3.59242
  Br       -1.22101        -7.78657        -4.59567
   C       -3.93523        -1.49638        -0.65302
   O       -4.64046        -0.81218        -1.36248
   C       -3.64214        -1.33102         0.79228
   C       -4.27247        -0.48322         1.66038
   C       -5.10869         0.61605         1.37848
   C       -5.25518         1.39753         0.23988
   C       -6.20164         2.39868         0.41167
   C       -6.79464         2.38850         1.69321
   S       -6.15033         1.17772         2.69422
   C       -7.78521         3.40145         1.73888
   C       -7.81589         4.05258         0.49476
   C       -6.80100         3.47061        -0.36836
   C       -6.45924         3.87864        -1.62360
   C       -5.41955         3.27940        -2.36767
   N       -4.56561         2.82302        -2.98099
   C       -7.10576         4.96521        -2.25102
   N       -7.62619         5.85341        -2.75633
   C       -8.79426         5.04409         0.42682
   C       -9.51224         5.15438         1.60139
   S       -8.95867         4.00926         2.81258
   C      -10.60074         6.06480         1.88355
   C      -11.58371         5.74363         2.82475
   F      -11.47221         4.54532         3.44972
   C      -12.67069         6.55307         3.11726
   O      -13.64932         6.28424         4.01113
   C      -13.57582         5.19998         4.91566
   C      -12.80985         7.77525         2.41609
   C      -11.79568         8.11982         1.51009
   C      -10.70316         7.31080         1.21492
   O       -9.69847         7.60435         0.36752
   C       -9.71342         8.74897        -0.46878
   F      -11.87517         9.33075         0.91555
   C      -13.95707         8.61852         2.64892
   C      -14.38484         9.71158         1.91257
   C      -15.53441        10.29367         2.44332
   C      -15.98954         9.63946         3.59993
   S      -15.02083         8.29861         4.00910
   C      -17.15053        10.30719         4.06129
   C      -17.43381        11.38085         3.19392
   C      -16.42624        11.40335         2.14409
   C      -16.34752        12.27209         1.09644
   C      -15.33066        12.19057         0.12092
   N      -14.51487        12.12633        -0.68194
   C      -17.29161        13.30372         0.90458
   N      -18.05994        14.13810         0.73781
   C      -18.57181        12.08670         3.56687
   C      -19.14285        11.59139         4.73079
   S      -18.26891        10.18297         5.33479
   C      -20.33518        12.06019         5.32594
   C      -20.83950        11.82292         6.56782
   C      -20.24921        11.29739         7.78021
   C      -18.95442        11.48057         8.19229
   C      -18.45267        11.02736         9.42824
   N      -17.99511        10.65713        10.41365
   C      -18.01198        12.22923         7.45789
   N      -17.23520        12.86831         6.90470
   C      -21.34049        10.81794         8.62038
   C      -22.56711        11.26624         8.06732
   C      -22.29947        11.99199         6.80854
   O      -23.09242        12.55549         6.09144
   C      -23.77834        11.01320         8.66402
   C      -23.77901        10.27444         9.85221
   C      -22.54939         9.81945        10.38696
   C      -21.32272        10.08343         9.78997
   S      -22.78447         8.91640        11.85187
   C      -24.50672         9.16359        11.73299
   C      -24.88829         9.88259        10.65066
  Br      -25.63641         8.44506        13.04577
   H       -3.81648        -2.91269        -3.10794
   H       -1.29078        -4.89857         0.73764
   H       -2.87311        -5.13117        -4.54111
   H       -4.16185        -0.69129         2.71856
   H       -4.69448         1.22944        -0.66011
   H       -8.99513         5.63889        -0.44233
   H      -12.65284         5.22299         5.49817
   H      -13.66425         4.24051         4.40239
   H      -14.42778         5.33505         5.58028
   H      -10.61143         8.78643        -1.08776
   H       -8.83976         8.63067        -1.10827
   H       -9.62333         9.67286         0.10534
   H      -13.90049        10.06931         1.02489
   H      -18.96980        12.94061         3.04887
   H      -20.98743        12.62552         4.66624
   H      -24.69725        11.37429         8.22968
   H      -20.41003         9.71386        10.22781
   H      -25.90956        10.12742        10.42278
*
