# ORCA input file
# SCF done       -223.942663618106          0.000408836121
! CAM-B3LYP def2-SVP def2/J RIJCOSX Grid4 TightSCF
%maxcore 5000
%tddft
    Mode sTDDFT
    Ethresh 5.0
    maxcore 5000
end

%pal
  nprocs 6
  end
* xyz 0 1
   C      -22.19899        -5.39316         3.22663
   C      -22.49512        -4.83741         4.43934
   F      -23.70414        -5.02150         4.98787
   C      -21.53778        -4.06614         5.12797
   F      -21.85566        -3.53323         6.31664
   C      -20.29667        -3.86114         4.59404
   C      -19.96115        -4.42039         3.34581
   C      -20.92843        -5.19976         2.64763
   C      -20.61606        -5.76825         1.39175
   C      -19.37360        -5.56328         0.85072
   C      -18.41384        -4.79237         1.55849
   C      -18.68543        -4.22826         2.77125
   C      -17.15575        -4.72992         0.78637
   O      -16.16970        -4.10783         1.12375
   C      -17.37442        -5.57920        -0.40914
   C      -18.76907        -6.00565        -0.40104
   C      -19.44418        -6.64524        -1.40825
   C      -18.92403        -7.00450        -2.67046
   N      -18.60529        -7.31734        -3.72913
   C      -20.80547        -7.00987        -1.33425
   N      -21.90560        -7.33849        -1.33757
   C      -16.47278        -6.06208        -1.31791
   C      -15.08995        -5.80685        -1.56762
   C      -14.42930        -6.71102        -2.42902
   C      -13.09667        -6.57869        -2.73853
   C      -12.38840        -5.50880        -2.19727
   C      -13.03893        -4.58110        -1.36195
   C      -14.36614        -4.71638        -1.04967
   C      -12.07621        -3.50758        -0.90675
   C      -12.51774        -2.12774        -1.40421
   C      -11.94217        -3.50829         0.61920
   C      -10.79355        -3.94995        -1.57491
   C       -9.54996        -3.37932        -1.51719
   C       -8.46751        -3.97183        -2.20154
   C       -8.70853        -5.12967        -2.96258
   C       -9.95829        -5.70215        -3.03135
   C      -11.00762        -5.12161        -2.32828
   C       -7.18162        -3.36064        -2.07383
   C       -5.94986        -3.79692        -2.46951
   C       -4.73448        -3.08778        -2.23430
   C       -3.61065        -3.72172        -2.65478
   C       -3.85426        -4.97928        -3.25778
   S       -5.57419        -5.31107        -3.28051
   C       -2.94905        -5.88329        -3.76345
   C       -1.53596        -5.79685        -3.79986
   C       -0.93337        -6.88555        -4.34075
   C       -1.82358        -7.91197        -4.77655
   S       -3.47717        -7.39698        -4.46890
   C       -1.42295        -9.10832        -5.29617
   C       -2.19442       -10.22177        -5.75671
   C       -3.58259       -10.16975        -5.97036
   C       -4.28786       -11.26873        -6.40760
   C       -3.60960       -12.45935        -6.63653
   C       -2.21810       -12.53208        -6.43568
   C       -1.51828       -11.43243        -6.01428
   C       -1.70974       -13.92362        -6.74129
   C       -0.67195       -13.90700        -7.86690
   C       -1.13414       -14.58304        -5.48323
   C       -2.98136       -14.62356        -7.16442
   C       -3.15351       -15.92145        -7.57160
   C       -4.44782       -16.38818        -7.85089
   C       -5.53209       -15.49959        -7.78174
   C       -5.35654       -14.18412        -7.41554
   C       -4.07960       -13.74767        -7.08232
   C       -4.63535       -17.75761        -8.24373
   C       -5.71519       -18.54934        -8.02521
   C       -5.91735       -19.77781        -8.84018
   O       -5.10578       -20.31656        -9.55666
   C       -7.33200       -20.15243        -8.63009
   C       -8.06092       -21.12925        -9.24462
   C       -9.42308       -21.28751        -8.90394
   C      -10.00631       -20.42284        -7.93259
   C      -11.36765       -20.58125        -7.60348
   C      -12.11355       -21.55410        -8.20716
   C      -11.53539       -22.40974        -9.16619
   C      -10.21859       -22.28047        -9.50824
   F      -12.29123       -23.35433        -9.74304
   F      -13.40710       -21.70394        -7.89202
   C       -9.22487       -19.42476        -7.30717
   C       -7.90441       -19.29586        -7.64648
   C       -6.86492       -18.39594        -7.15453
   C       -6.89267       -17.73434        -5.95553
   C       -5.77315       -17.09329        -5.38424
   N       -4.88367       -16.61575        -4.83823
   C       -8.02111       -17.69470        -5.11204
   N       -8.92357       -17.62071        -4.40627
   H      -22.94385        -5.97985         2.71198
   H      -19.57450        -3.26875         5.13376
   H      -21.36872        -6.35698         0.89345
   H      -17.93607        -3.64502         3.28464
   H      -16.87009        -6.82837        -1.97486
   H      -14.99081        -7.53549        -2.84487
   H      -12.60969        -7.28872        -3.38967
   H      -14.85401        -4.00169        -0.41087
   H      -13.47428        -1.86079        -0.96224
   H      -12.62212        -2.13168        -2.48731
   H      -11.78356        -1.37452        -1.12862
   H      -12.90434        -3.29614         1.07824
   H      -11.22674        -2.75342         0.93652
   H      -11.59920        -4.48065         0.96658
   H       -9.38002        -2.48288        -0.93786
   H       -7.90205        -5.57816        -3.51846
   H      -10.11812        -6.59136        -3.62221
   H       -7.17679        -2.41269        -1.54741
   H       -4.74228        -2.12684        -1.75012
   H       -2.61547        -3.32863        -2.54706
   H       -1.01141        -4.93910        -3.41831
   H        0.13161        -6.99963        -4.44425
   H       -0.34840        -9.24709        -5.33823
   H       -4.11072        -9.24429        -5.81042
   H       -5.35303       -11.20252        -6.56973
   H       -0.44973       -11.48224        -5.85960
   H        0.20926       -13.35001        -7.55812
   H       -1.08647       -13.43657        -8.75614
   H       -0.37058       -14.92098        -8.11788
   H       -0.28092       -14.01713        -5.11690
   H       -0.81229       -15.59764        -5.70392
   H       -1.89053       -14.62340        -4.70296
   H       -2.32055       -16.60585        -7.63483
   H       -6.51579       -15.85123        -8.05948
   H       -6.19706       -13.50774        -7.38068
   H       -3.84489       -18.20538        -8.83830
   H       -7.60510       -21.77260        -9.98177
   H      -11.82474       -19.93705        -6.86868
   H       -9.79106       -22.94311       -10.24433
   H       -9.69222       -18.77895        -6.58086
*
