# ORCA input file
# SCF done       -180.612211003576          0.000612997698
! CAM-B3LYP def2-SVP def2/J RIJCOSX Grid4 TightSCF
%maxcore 5000
%tddft
    Mode sTDDFT
    Ethresh 5.0
    maxcore 5000
end

%pal
  nprocs 6
  end
* xyz 0 1
   C       -6.69627         0.87902         8.02117
   C       -7.68571         0.80501         8.96127
   F       -7.79394         1.75387         9.90221
   C       -8.60168        -0.26487         8.95487
   F       -9.56262        -0.31384         9.88959
   C       -8.51643        -1.24622         8.00736
   C       -7.50859        -1.19757         7.02530
   C       -6.58076        -0.11696         7.03113
   C       -5.55837        -0.04784         6.05575
   C       -5.46754        -1.02844         5.10453
   C       -6.40036        -2.10250         5.10651
   C       -7.39665        -2.19770         6.03327
   C       -6.08527        -3.01368         3.98906
   O       -6.69474        -4.03112         3.70097
   C       -4.91343        -2.44959         3.32211
   C       -4.53702        -1.22604         3.99208
   C       -3.51082        -0.37306         3.66745
   C       -3.21582         0.80913         4.37662
   N       -2.91971         1.78290         4.90886
   C       -2.60872        -0.52778         2.59474
   N       -1.83346        -0.56330         1.74723
   C       -4.26559        -3.00965         2.24127
   C       -4.55598        -4.16656         1.52458
   C       -3.74075        -4.57331         0.43159
   O       -2.67378        -3.82808         0.11497
   C       -1.88413        -4.23288        -0.98301
   C       -4.18382        -5.73270        -0.18180
   C       -5.33689        -6.23908         0.41343
   S       -5.87903        -5.28294         1.75621
   C       -6.03768        -7.38904         0.01679
   C       -7.21480        -7.88043         0.60809
   O       -7.71681        -7.21252         1.65796
   C       -8.89462        -7.69921         2.26087
   C       -7.69896        -9.02540        -0.01255
   C       -6.91605        -9.45206        -1.08583
   S       -5.54887        -8.39298        -1.31390
   C       -7.17884       -10.56604        -1.88910
   C       -6.43149       -11.04735        -2.93915
   C       -6.75817       -12.17439        -3.73153
   C       -5.84843       -12.45691        -4.70602
   C       -4.75077       -11.57009        -4.73070
   S       -4.91817       -10.35535        -3.48489
   C       -3.65295       -11.60214        -5.57592
   C       -3.39388       -12.51411        -6.62065
   C       -2.20850       -12.30018        -7.26188
   C       -1.46909       -11.20748        -6.75231
   S       -2.34277       -10.45381        -5.43952
   C       -0.22991       -10.72597        -7.13711
   C        0.52539       -11.29166        -8.15972
   C        1.77919       -10.86033        -8.54741
   C        2.58985       -11.42763        -9.59420
   C        2.27027       -12.48567       -10.41575
   C        3.11557       -12.98790       -11.42439
   N        3.75323       -13.44496       -12.26361
   C        1.06925       -13.21945       -10.37823
   N        0.12053       -13.86844       -10.40964
   C        3.84320       -10.67697        -9.64327
   C        3.80488        -9.66648        -8.65215
   C        2.51525        -9.73815        -7.93265
   O        2.15995        -9.01231        -7.02461
   C        4.84250        -8.79267        -8.44306
   C        5.97704        -8.92095        -9.25232
   C        6.00642        -9.93199       -10.24039
   C        4.95486       -10.81653       -10.45165
   S        7.50117        -9.91570       -11.12726
   C        8.05786        -8.56878       -10.17021
   C        7.17254        -8.15127        -9.23485
  Br        9.75664        -7.84203       -10.49526
   H       -6.00276         1.70517         8.04029
   H       -9.22572        -2.05900         8.01609
   H       -4.87245         0.78266         6.09063
   H       -8.09028        -3.02446         6.01102
   H       -3.38843        -2.49495         1.86777
   H       -2.46918        -4.24732        -1.90685
   H       -1.44672        -5.22074        -0.81323
   H       -1.09299        -3.49011        -1.06210
   H       -3.71773        -6.21208        -1.02399
   H       -9.10519        -7.01244         3.07785
   H       -8.74931        -8.70881         2.65668
   H       -9.73075        -7.69952         1.55521
   H       -8.58683        -9.55366         0.28351
   H       -8.08247       -11.11347        -1.65177
   H       -7.65565       -12.74050        -3.55546
   H       -5.93632       -13.27624        -5.39591
   H       -4.08043       -13.30140        -6.87458
   H       -1.85605       -12.90237        -8.07985
   H        0.17361        -9.87506        -6.60823
   H        0.10296       -12.13560        -8.68435
   H        4.78255        -8.03405        -7.67848
   H        5.02813       -11.56987       -11.21784
   H        7.35297        -7.33513        -8.55931
*
