# ORCA input file
# SCF done       -281.478260292030          0.000621676591
! CAM-B3LYP def2-SVP def2/J RIJCOSX Grid4 TightSCF
%maxcore 5000
%tddft
    Mode sTDDFT
    Ethresh 5.0
    maxcore 5000
end

%pal
  nprocs 6
  end
* xyz 0 1
   C       -2.77607       -14.58589        -2.62875
   C       -3.68499       -15.32274        -3.33489
   F       -3.28536       -16.39414        -4.03110
   C       -5.04910       -14.96639        -3.34282
   F       -5.91310       -15.69929        -4.05447
   C       -5.48525       -13.87929        -2.63938
   C       -4.57436       -13.10684        -1.89422
   C       -3.19413       -13.45999        -1.89103
   C       -2.26192       -12.69472        -1.15459
   C       -2.69876       -11.62990        -0.41008
   C       -4.08346       -11.31317        -0.38546
   C       -5.00111       -12.00576        -1.12227
   C       -4.31739       -10.22016         0.57770
   O       -5.41446        -9.84611         0.94985
   C       -2.97750        -9.77971         1.02240
   C       -1.99110       -10.67979         0.44471
   C       -0.64302       -10.68145         0.67478
   C        0.24062       -11.64170         0.13726
   N        0.99982       -12.40415        -0.26191
   C        0.06196        -9.75524         1.47303
   N        0.72635        -9.04184         2.07902
   C       -2.73290        -8.75684         1.88698
   C       -3.78838        -7.91105         2.42082
   C       -3.94195        -7.79161         3.81367
   C       -3.00047        -8.58460         4.60683
   O       -2.40226        -9.51294         4.07180
   C       -2.81358        -8.27070         6.02681
   C       -2.63997        -9.26551         6.94899
   S       -2.49940        -8.67218         8.54523
   C       -2.64936        -7.05838         7.99022
   C       -2.80372        -6.97287         6.63709
   C       -2.90811        -5.65400         5.96215
   O       -3.43785        -4.71142         6.51186
   C       -2.33618        -5.56812         4.59845
   C       -2.96735        -4.74702         3.66562
   C       -2.50615        -4.68931         2.36518
   C       -1.38231        -5.41399         1.99968
   C       -0.71481        -6.18859         2.93678
   C       -1.19632        -6.28079         4.23038
   C       -5.03073        -7.10196         4.34237
   C       -6.00446        -6.60981         3.49929
   C       -5.85428        -6.72529         2.11992
   C       -4.71172        -7.30508         1.58607
   C       -6.98817        -6.59505         1.18772
   C       -7.09255        -5.66788         0.15135
   C       -6.07570        -4.60263        -0.00475
   O       -5.49958        -4.07672         0.92187
   C       -5.80902        -4.23970        -1.41832
   C       -5.61366        -2.96008        -1.84677
   S       -5.38025        -2.86171        -3.53993
   C       -5.52637        -4.56972        -3.69074
   C       -5.75777        -5.18166        -2.49715
   C       -5.78720        -6.65504        -2.28281
   O       -4.94182        -7.18365        -1.58819
   C       -6.87495        -7.43498        -2.91675
   C       -7.78640        -6.88738        -3.81772
   C       -8.80936        -7.66592        -4.32520
   C       -8.94185        -8.98895        -3.93373
   C       -8.04390        -9.53909        -3.03263
   C       -7.01378        -8.76947        -2.53131
   C       -8.14823        -5.79077        -0.75360
   C       -8.98780        -6.88390        -0.72831
   C       -8.81583        -7.87199         0.23740
   C       -7.86719        -7.66647         1.23123
   C       -9.47998        -9.18056         0.19555
   C      -10.83134        -9.35539        -0.11497
   C      -11.68185        -8.17185        -0.42985
   O      -11.82239        -7.23212         0.32286
   C      -12.32352        -8.19575        -1.75291
   C      -12.24978        -9.18178        -2.70140
   S      -13.15106        -8.80634        -4.10201
   C      -13.64407        -7.29527        -3.42582
   C      -13.12734        -7.09504        -2.19031
   C      -13.32134        -5.87409        -1.34281
   O      -14.33080        -5.68478        -0.71102
   C      -12.19396        -4.90980        -1.39812
   C      -12.03187        -4.01341        -0.34458
   C      -11.01517        -3.07854        -0.37690
   C      -10.16958        -3.01144        -1.47254
   C      -10.33159        -3.89470        -2.52896
   C      -11.32841        -4.85204        -2.48841
   C      -11.37379       -10.63932        -0.11528
   C      -10.58558       -11.74082         0.14118
   C       -9.22195       -11.58708         0.42118
   C       -8.68987       -10.29894         0.44259
   C       -8.38319       -12.75309         0.57607
   C       -7.20817       -12.93308         1.22441
   C       -6.37681       -14.11559         0.83572
   O       -6.72111       -15.02987         0.12315
   C       -5.04674       -13.87234         1.41689
   C       -3.89592       -14.58694         1.24227
   C       -2.70806       -14.13593         1.85784
   C       -2.73891       -12.94709         2.64350
   C       -1.54828       -12.48643         3.24198
   C       -0.38486       -13.18577         3.08088
   C       -0.35617       -14.36908         2.31274
   C       -1.49221       -14.83094         1.70832
   F        0.79208       -15.03887         2.18279
   F        0.74456       -12.75363         3.65143
   C       -3.94758       -12.23450         2.81616
   C       -5.08953       -12.69092         2.21081
   C       -6.45115       -12.16415         2.20103
   C       -6.94848       -11.26177         3.09927
   C       -8.31782       -10.94162         3.21206
   N       -9.42372       -10.68523         3.37723
   C       -6.16678       -10.60706         4.07278
   N       -5.58754       -10.04185         4.88703
   H       -1.73546       -14.87076        -2.63715
   H       -6.53336       -13.62603        -2.64753
   H       -1.22295       -12.97821        -1.19286
   H       -6.04519       -11.72928        -1.10555
   H       -1.71326        -8.49055         2.13034
   H       -2.63315       -10.32061         6.75889
   H       -2.59638        -6.23842         8.67910
   H       -3.83872        -4.18587         3.96616
   H       -3.03187        -4.08532         1.64193
   H       -1.01760        -5.36978         0.98374
   H        0.17510        -6.73358         2.65856
   H       -0.66997        -6.88275         4.95703
   H       -5.16168        -7.03881         5.41110
   H       -6.90185        -6.16687         3.90287
   H       -4.59109        -7.36504         0.51529
   H       -5.62206        -2.07131        -1.24743
   H       -5.38881        -5.02851        -4.65039
   H       -7.69754        -5.85549        -4.12008
   H       -9.51035        -7.24119        -5.02852
   H       -9.74336        -9.58969        -4.33692
   H       -8.15224       -10.56831        -2.72306
   H       -6.30600        -9.17276        -1.82245
   H       -8.29440        -5.03258        -1.50732
   H       -9.73532        -6.99392        -1.49960
   H       -7.76191        -8.38736         2.02731
   H      -11.71572       -10.10940        -2.64557
   H      -14.27965        -6.64403        -3.99187
   H      -12.70908        -4.07668         0.49282
   H      -10.88546        -2.39305         0.44682
   H       -9.38379        -2.27032        -1.50512
   H       -9.68119        -3.83309        -3.39074
   H      -11.45148        -5.53428        -3.31803
   H      -12.42962       -10.76693        -0.30350
   H      -11.02152       -12.72866         0.14188
   H       -7.63103       -10.16012         0.60302
   H       -8.70163       -13.62297         0.00457
   H       -3.89288       -15.48305         0.64042
   H       -1.55735       -11.57220         3.81617
   H       -1.45364       -15.73439         1.12032
   H       -3.92733       -11.33311         3.40736
*
