# ORCA input file
# SCF done       -225.888836871972          0.000849504872
! CAM-B3LYP def2-SVP def2/J RIJCOSX Grid4 TightSCF
%maxcore 5000
%tddft
    Mode sTDDFT
    Ethresh 5.0
    maxcore 5000
end

%pal
  nprocs 6
  end
* xyz 0 1
   C      -10.08542        -1.94586         4.67867
   C      -11.06271        -2.53836         5.42749
   F      -11.77947        -1.81320         6.29394
   C      -11.32769        -3.91757         5.30149
   F      -12.29087        -4.46877         6.04923
   C      -10.60800        -4.68680         4.43105
   C       -9.59297        -4.10550         3.64701
   C       -9.32921        -2.70953         3.76765
   C       -8.33636        -2.09913         2.96956
   C       -7.64630        -2.85763         2.06078
   C       -7.91783        -4.25042         1.94420
   C       -8.84990        -4.87331         2.72470
   C       -7.11974        -4.80835         0.83918
   O       -6.91472        -5.97650         0.59115
   C       -6.52634        -3.62151         0.15280
   C       -6.65126        -2.48875         1.05929
   C       -5.97503        -1.30243         0.99667
   C       -4.98856        -0.99557         0.03497
   N       -4.17942        -0.69690        -0.72223
   C       -6.14415        -0.25515         1.92846
   N       -6.23202         0.62084         2.66393
   C       -6.04377        -3.60343        -1.11841
   C       -6.23916        -4.62582        -2.09161
   C       -5.33514        -5.01290        -3.04136
   C       -5.85523        -6.17318        -3.71958
   C       -5.22657        -6.85415        -4.77061
   N       -4.71805        -7.43603        -5.61923
   C       -7.06747        -6.51550        -3.16536
   C       -7.39514        -5.55088        -2.16949
   C       -8.58073        -5.40066        -1.48707
   C       -9.48221        -6.47228        -1.00008
   C      -10.43585        -5.87559        -0.20601
   C      -10.20961        -4.45960        -0.20635
   C       -9.09066        -4.17514        -0.96103
   C      -10.94550        -3.52539         0.53539
   N      -11.49204        -2.75861         1.19176
   C       -9.28790        -7.85427        -1.21620
   C      -10.04394        -8.82535        -0.62599
   C       -9.97129       -10.21034        -0.90631
   C      -10.25773       -11.18470         0.01881
   C       -9.85929       -12.45405        -0.51226
   C      -10.07405       -13.68998         0.11030
   N      -10.33215       -14.70715         0.57673
   C       -9.33248       -12.27684        -1.77100
   C       -9.51781       -10.90651        -2.14403
   C       -9.53824       -10.39715        -3.42193
   C       -8.99613       -11.01355        -4.66067
   C       -8.79144       -10.00231        -5.55430
   C       -9.37047        -8.78778        -5.02491
   C       -9.86832        -9.03859        -3.77414
   C       -9.40779        -7.55785        -5.69714
   N       -9.40583        -6.53819        -6.22378
   C       -8.81064       -12.39792        -4.97841
   C       -9.63189       -13.36009        -4.50951
   C       -9.56877       -14.76792        -4.75529
   C      -10.17181       -15.62661        -3.86165
   C      -10.27181       -17.00455        -4.00561
   C       -9.60489       -17.67633        -5.12227
   C       -8.92675       -17.02943        -6.10193
   S       -8.76249       -15.32909        -6.19662
   C       -9.79714       -19.06895        -4.90484
   C      -10.51185       -19.26283        -3.72330
   C      -10.73217       -20.63039        -3.45285
   C      -10.18602       -21.42088        -4.41452
   S       -9.39287       -20.54693        -5.68007
   C      -10.84788       -17.98198        -3.14724
   C      -11.51498       -17.86885        -1.91531
   C      -12.19331       -16.81015        -1.34623
   C      -12.63483       -15.68729        -2.04208
   C      -13.08102       -14.46459        -1.57071
   C      -12.98662       -13.32596        -2.49458
   O      -12.70673       -13.35007        -3.67933
   C      -13.15860       -12.11280        -1.66247
   C      -13.39166       -12.50288        -0.33276
   C      -13.49434       -11.53542         0.65281
   C      -13.35706       -10.19137         0.30433
   C      -13.13012        -9.81821        -1.03037
   C      -13.04058       -10.79178        -2.02976
   C      -12.95666        -8.46488        -1.40969
   N      -12.79292        -7.40370        -1.81064
   C      -13.32920        -9.12893         1.35897
   O      -12.62523        -8.15748         1.25758
   O      -14.08973        -9.31804         2.43365
   C      -13.46565       -13.96930        -0.27721
   C      -14.01672       -14.66256         0.77360
   C      -14.33193       -16.03495         0.76103
   N      -14.66038       -17.13421         0.79617
   C      -14.45831       -14.03437         1.95367
   N      -14.83719       -13.53398         2.91602
   H       -9.90057        -0.88826         4.78246
   H      -10.82824        -5.73886         4.33998
   H       -8.16520        -1.03990         3.07563
   H       -9.04010        -5.93047         2.61589
   H       -5.48087        -2.74130        -1.45596
   H       -4.36739        -4.58317        -3.22137
   H       -7.72420        -7.27007        -3.55167
   H      -11.23021        -6.35782         0.33101
   H       -8.73072        -3.19392        -1.20574
   H       -8.47721        -8.15184        -1.86340
   H      -10.70270        -8.54260         0.18374
   H      -10.61334       -11.02687         1.01973
   H       -8.89317       -13.04672        -2.37067
   H       -8.36688       -10.08962        -6.53677
   H      -10.42237        -8.34768        -3.16923
   H       -8.03417       -12.63647        -5.69472
   H      -10.45959       -13.06746        -3.87718
   H      -10.57160       -15.17329        -2.96686
   H       -8.44237       -17.55779        -6.90803
   H      -11.26263       -21.01444        -2.60093
   H      -10.19735       -22.49193        -4.46724
   H      -11.45854       -18.76565        -1.30815
   H      -12.40373       -16.88852        -0.29121
   H      -12.56164       -15.72200        -3.12430
   H      -13.61433       -11.81588         1.68835
   H      -12.86647       -10.51619        -3.05904
   H      -14.62431       -10.12498         2.41265
*
