# ORCA input file
# SCF done       -199.680972395499          0.000319832155
! CAM-B3LYP def2-SVP def2/J RIJCOSX Grid4 TightSCF
%maxcore 5000
%tddft
    Mode sTDDFT
    Ethresh 5.0
    maxcore 5000
end

%pal
  nprocs 6
  end
* xyz 0 1
   C       -5.69245         2.96815        -2.53567
   C       -6.17841         4.14048        -2.02999
   C       -7.20535         4.20792        -1.06320
   N       -8.04848         4.31429        -0.29288
   C       -5.78772         5.42016        -2.47471
   N       -5.53609         6.48377        -2.82726
   C       -6.22158         1.64019        -2.25842
   C       -5.82994         0.75928        -3.31137
   C       -6.22392        -0.54885        -3.33492
   C       -7.03182        -1.04401        -2.28761
   C       -7.40628        -0.17460        -1.22090
   C       -6.98755         1.17501        -1.22259
   C       -8.20427        -0.68570        -0.17683
   C       -8.61862        -1.98963        -0.18688
   C       -8.25285        -2.84342        -1.23884
   C       -7.47623        -2.38113        -2.26631
   C       -4.98018         1.48334        -4.26857
   O       -4.51417         1.09576        -5.31187
   C       -4.74766         2.82264        -3.63410
   C       -3.71607         3.59524        -4.02687
   C       -3.19839         4.71952        -3.29284
   N       -3.17729         4.67252        -1.97494
   N       -2.81565         5.67242        -1.22364
   C       -2.41082         6.83234        -1.70157
   C       -2.27550         6.97862        -3.11434
   C       -2.68312         5.87868        -3.94244
   N       -2.48063         6.23802        -5.19380
   O       -1.98020         7.46429        -5.14577
   N       -1.84746         7.93518        -3.90997
   C       -2.12479         7.89865        -0.79962
   C       -2.22900         7.86576         0.58642
   C       -2.67382         6.72790         1.28634
   N       -3.04037         5.82796         1.89301
   C       -1.85511         9.09987         1.17301
   C       -1.49439        10.02983         0.19333
   S       -1.58770         9.43657        -1.41481
   S       -1.01637        11.58108         0.79064
   C       -1.28754        10.98390         2.39667
   C       -1.72678         9.66788         2.47741
   C       -1.89610         9.26470         3.83189
   C       -2.30880         7.99064         4.25250
   N       -2.63306         6.96008         4.63751
   C       -1.57851        10.27565         4.73077
   S       -1.07685        11.74707         3.92167
   C       -1.58231        10.25588         6.15267
   C       -1.14406        11.28876         6.96626
   C       -1.23600        10.96511         8.31674
   C       -1.75945         9.67731         8.53034
   S       -2.13266         8.86661         7.07436
   C       -1.79112         9.43131         9.92659
   C       -1.27399        10.56205        10.59327
   C       -0.93040        11.57034         9.60441
   C       -0.43957        12.82199         9.82879
   C       -0.21473        13.33507        11.12509
   N       -0.04491        13.78214        12.16658
   C       -0.14340        13.70475         8.76796
   N        0.09834        14.41913         7.90434
   C       -1.20852        10.40046        11.97222
   C       -1.67606         9.15730        12.37234
   S       -2.23990         8.19520        11.00280
   C       -1.80270         8.59263        13.66180
   C       -1.09141         8.90457        14.78424
   C       -1.34087         8.35570        16.10547
   C       -2.51009         7.78284        16.53318
   C       -2.71430         7.29059        17.83908
   N       -2.93612         6.86607        18.88234
   C       -3.67340         7.64813        15.74647
   N       -4.65839         7.52850        15.16840
   C       -0.16476         8.61164        16.92542
   C        0.75851         9.38028        16.16089
   C        0.20631         9.63304        14.81977
   O        0.74579        10.24267        13.92176
   C        1.96179         9.77772        16.66871
   C        2.30370         9.41571        17.99078
   C        1.38803         8.64121        18.76071
   C        0.14853         8.24523        18.20760
   C        1.74334         8.28048        20.07634
   C        2.94405         8.66575        20.60786
   C        3.84434         9.42865        19.84920
   C        3.53057         9.79653        18.56883
   H       -5.92286        -1.19798        -4.14372
   H       -7.27115         1.80952        -0.39756
   H       -8.48546        -0.02390         0.62881
   H       -9.23148        -2.37109         0.61587
   H       -8.58901        -3.86936        -1.23033
   H       -7.19098        -3.03397        -3.07815
   H       -3.20964         3.33598        -4.94920
   H       -0.76993        12.21914         6.57743
   H       -0.85130        11.14240        12.66069
   H       -2.52578         7.78791        13.73130
   H        2.64320        10.36236        16.06867
   H       -0.52011         7.65265        18.81180
   H        1.04639         7.69441        20.65724
   H        3.20673         8.38466        21.61665
   H        4.78771         9.72311        20.28410
   H        4.21945        10.38402        17.97970
*
