# ORCA input file
# SCF done       -304.463680334779          0.000921814569
! CAM-B3LYP def2-SVP def2/J RIJCOSX Grid4 TightSCF
%maxcore 5000
%tddft
    Mode sTDDFT
    Ethresh 5.0
    maxcore 5000
end

%pal
  nprocs 6
  end
* xyz 0 1
   C        1.70307        -5.73603        -4.38124
   C        1.50319        -4.62289        -5.19476
   C        0.16134        -3.98533        -5.27892
   O       -0.14281        -3.15256        -6.09119
   O       -0.68481        -4.43932        -4.34922
   C        2.55283        -4.09211        -5.96337
   C        2.38164        -2.95856        -6.79809
   N        2.37543        -2.04767        -7.49269
   C        3.82632        -4.66735        -5.90701
   C        4.01244        -5.76459        -5.09461
   C        2.96022        -6.31460        -4.33724
   C        3.45469        -7.49265        -3.62434
   C        2.66711        -8.50199        -3.14133
   C        1.25657        -8.45361        -3.11652
   N        0.11041        -8.46340        -3.06164
   C        3.14549        -9.75359        -2.69680
   N        3.44283       -10.81627        -2.38235
   C        4.89723        -7.50941        -3.77876
   C        5.25503        -6.53321        -4.84210
   O        6.33740        -6.37687        -5.35406
   C        5.87877        -8.17034        -3.11517
   C        5.79218        -8.88935        -1.87557
   C        6.61470       -10.00348        -1.66865
   C        6.49861       -10.75287        -0.52231
   C        5.62037       -10.37214         0.49618
   C        4.85518        -9.21476         0.32453
   C        4.92273        -8.49949        -0.84700
   C        5.46120       -11.22394         1.67717
   C        5.34715       -12.66162         1.37362
   C        4.55353       -13.08402         0.30763
   C        4.44360       -14.42919         0.00934
   C        5.13267       -15.36887         0.75789
   C        5.94161       -14.95540         1.80379
   C        6.05039       -13.61265         2.11050
   C        5.40827       -10.74098         2.94287
   C        5.03730       -11.60223         4.07896
   C        5.79020       -11.58118         5.25160
   C        5.44259       -12.38250         6.32275
   C        4.33058       -13.20452         6.24472
   C        3.56489       -13.21778         5.09010
   C        3.91394       -12.42450         4.01416
   C        5.74156        -9.35426         3.28700
   C        5.04266        -8.69860         4.30249
   C        5.38445        -7.41823         4.68443
   C        6.42870        -6.74296         4.05642
   C        7.12005        -7.39113         3.03454
   C        6.79299        -8.67895         2.66542
   C        6.82508        -5.39558         4.48561
   C        7.00850        -5.11185         5.83733
   C        7.44266        -3.86860         6.24664
   C        7.67893        -2.85351         5.31903
   C        7.47563        -3.13477         3.96683
   C        7.06459        -4.38593         3.55652
   C        8.20483        -1.54424         5.72636
   C        9.19773        -0.95251         4.81014
   C       10.24480        -1.72603         4.31356
   C       11.17463        -1.17748         3.45048
   C       11.06543         0.14684         3.05981
   C       10.01770         0.91888         3.53424
   C        9.09030         0.37524         4.40240
   C        7.83600        -0.91568         6.86548
   C        8.52321         0.28778         7.36366
   C        9.91425         0.36262         7.40091
   C       10.54203         1.49145         7.89107
   C        9.79391         2.56195         8.35321
   C        8.41100         2.49128         8.33522
   C        7.77978         1.36071         7.85214
   C        6.72070        -1.37270         7.70920
   C        6.89898        -1.51202         9.08447
   C        5.86217        -1.92952         9.89140
   C        4.59785        -2.18931         9.36042
   C        4.41651        -2.01830         7.98687
   C        5.45971        -1.62684         7.17388
   C        3.50176        -2.64334        10.22338
   C        3.42322        -2.25018        11.56069
   C        2.42388        -2.71903        12.38614
   C        1.44174        -3.58525        11.90256
   C        1.51084        -3.96917        10.56135
   C        2.51988        -3.51077         9.74204
   C        0.40548        -4.14330        12.77528
   C        0.02341        -5.53866        12.49520
   C       -1.31907        -5.90426        12.41542
   C       -1.67307        -7.20944        12.13294
   C       -0.69494        -8.16906        11.92852
   C        0.64201        -7.81367        11.99710
   C        1.00010        -6.50720        12.27117
   C       -0.15894        -3.45574        13.79986
   C       -1.01393        -4.10669        14.80881
   C       -0.64494        -5.31607        15.39480
   C       -1.45053        -5.90434        16.35070
   C       -2.63355        -5.29548        16.73697
   C       -3.00020        -4.08557        16.17136
   C       -2.19506        -3.48912        15.21936
   C        0.00452        -2.01486        13.99955
   C       -0.16200        -1.10913        12.94702
   C       -0.15041         0.24466        13.18185
   C        0.07962         0.74702        14.47124
   C        0.33147        -0.16224        15.50708
   C        0.24989        -1.51509        15.28236
   C        0.08643         2.15225        14.75584
   C       -0.63592         3.13833        14.16482
   C       -0.24309         4.56042        14.35693
   O        0.56127         4.99289        15.14626
   C       -1.01744         5.31785        13.34324
   C       -1.88911         4.43889        12.67466
   C       -2.67922         4.90594        11.63654
   C       -2.61980         6.25431        11.29368
   C       -1.76077         7.12762        11.98169
   C       -0.94686         6.65449        13.01587
   C       -1.70936         8.51152        11.67502
   N       -1.61806         9.64320        11.52759
   C       -3.41835         6.79816        10.14319
   O       -3.01768         7.69522         9.45900
   O       -4.60197         6.21788         9.91442
   C       -1.78239         3.11102        13.28010
   C       -2.76211         2.15490        13.21898
   C       -2.79575         0.97539        13.99211
   N       -2.93223         0.02655        14.62273
   C       -3.93036         2.31510        12.44593
   N       -4.88988         2.43961        11.82804
   H        0.87767        -6.11491        -3.80096
   H       -1.55079        -4.01316        -4.44770
   H        4.64283        -4.26345        -6.48623
   H        6.86335        -8.10628        -3.56900
   H        7.30176       -10.30299        -2.44614
   H        7.10088       -11.64030        -0.39376
   H        4.18272        -8.90301         1.10979
   H        4.32238        -7.60861        -0.96758
   H        4.01546       -12.35555        -0.28172
   H        3.81866       -14.74352        -0.81316
   H        5.04597       -16.41952         0.52346
   H        6.49338       -15.68249         2.38150
   H        6.69416       -13.29373         2.91702
   H        6.66071       -10.94292         5.31142
   H        6.04092       -12.36527         7.22211
   H        4.05922       -13.82982         7.08236
   H        2.69070       -13.84907         5.02842
   H        3.30992       -12.42947         3.11885
   H        4.22064        -9.20320         4.79002
   H        4.83046        -6.92525         5.47028
   H        7.94720        -6.88931         2.55350
   H        7.37411        -9.18110         1.90605
   H        6.84605        -5.89002         6.56932
   H        7.62644        -3.68779         7.29485
   H        7.64551        -2.35938         3.23335
   H        6.91351        -4.58463         2.50497
   H       10.33270        -2.75899         4.62072
   H       11.98751        -1.78543         3.08039
   H       11.79163         0.57446         2.38453
   H        9.92177         1.94925         3.22437
   H        8.26885         0.97688         4.76316
   H       10.50178        -0.47468         7.05428
   H       11.62107         1.53578         7.91508
   H       10.28687         3.44530         8.73117
   H        7.82203         3.32022         8.70021
   H        6.69998         1.30825         7.83621
   H        7.87075        -1.31254         9.51394
   H        6.04203        -2.07590        10.94605
   H        3.44003        -2.17296         7.55201
   H        5.29997        -1.50059         6.11273
   H        4.15440        -1.56382        11.96115
   H        2.41532        -2.43076        13.42695
   H        0.76045        -4.63688        10.16258
   H        2.56312        -3.85305         8.71879
   H       -2.08330        -5.15574        12.56410
   H       -2.71690        -7.47930        12.07022
   H       -0.97374        -9.18960        11.71220
   H        1.40860        -8.55725        11.83465
   H        2.04381        -6.23131        12.32807
   H        0.28411        -5.78660        15.10821
   H       -1.15197        -6.84061        16.79911
   H       -3.26332        -5.75986        17.48126
   H       -3.91659        -3.60104        16.47378
   H       -2.48571        -2.54418        14.78348
   H       -0.33472        -1.48391        11.94911
   H       -0.28675         0.93356        12.36001
   H        0.53108         0.21265        16.49998
   H        0.39116        -2.20813        16.09872
   H        0.78447         2.48862        15.51671
   H       -3.29784         4.22679        11.06892
   H       -0.27981         7.31910        13.54353
   H       -4.83740         5.52297        10.54520
*
