# ORCA input file
# SCF done       -162.701988027997          0.000472129289
! CAM-B3LYP def2-SVP def2/J RIJCOSX Grid4 TightSCF
%maxcore 5000
%tddft
    Mode sTDDFT
    Ethresh 5.0
    maxcore 5000
end

%pal
  nprocs 6
  end
* xyz 0 1
   C        7.88500        -2.80803         4.95187
   C        9.10073        -2.30713         4.49071
   C        9.54938        -2.94532         3.35619
   S       11.02390        -2.56728         2.51914
   C       10.92979        -3.70210         1.10773
   S        8.45937        -4.19330         2.85403
   C        7.38102        -3.84300         4.18561
   C        6.18072        -4.58207         4.30159
   C        5.25973        -4.42201         5.29073
   C        4.02888        -5.11505         5.38909
   C        3.32785        -5.32144         6.55274
   C        2.25649        -6.22850         6.28220
   C        1.31958        -6.66956         7.22291
   N        0.55702        -7.03957         7.99860
   C        2.29711        -6.60104         4.94779
   C        3.34739        -5.88933         4.32289
   C        3.54276        -5.76101         2.95426
   C        3.13790        -6.70157         1.89388
   C        3.26029        -6.03421         0.69023
   C        3.76332        -4.72551         0.94048
   C        3.96387        -4.57257         2.30343
   C        4.01636        -3.76199        -0.04069
   N        4.22877        -2.98399        -0.85952
   C        2.86236        -8.08187         1.99975
   C        3.13649        -8.86788         3.08004
   C        2.86851       -10.25139         3.19892
   C        2.30821       -11.04863         2.21269
   C        2.07396       -12.40477         2.33198
   C        2.37108       -13.13762         3.55774
   C        2.90915       -12.57036         4.66183
   S        3.32217       -10.91099         4.76034
   C        2.03142       -14.49317         3.28013
   C        1.59844       -14.62400         1.95824
   C        1.26435       -15.96248         1.65033
   C        1.44914       -16.78521         2.71566
   S        2.03551       -15.98196         4.13120
   C        1.61300       -13.32405         1.33666
   C        1.38490       -12.95622         0.01194
   C        1.19841       -13.79205        -1.06826
   C        1.25749       -13.39135        -2.40602
   C        0.73738       -14.11022        -3.47471
   C        0.79955       -13.30022        -4.62967
   C        0.36783       -13.68257        -5.90617
   N        0.01143       -13.99890        -6.95098
   C        1.36586       -12.06378        -4.30336
   C        1.73163       -12.08722        -2.94900
   C        2.53144       -11.15169        -2.29774
   C        2.64758        -9.71903        -2.61883
   C        3.59097        -9.18688        -1.77550
   C        4.10266       -10.23214        -0.93653
   C        3.45735       -11.41395        -1.25077
   C        5.03592       -10.06042         0.08799
   N        5.75877        -9.91269         0.97046
   C        1.79776        -9.02382        -3.53115
   C        2.01568        -7.76450        -3.96941
   C        1.18790        -7.07304        -4.91462
   C        0.25700        -7.70440        -5.78226
   C       -0.31328        -6.85647        -6.68092
   S       -1.49414        -7.30584        -7.88511
   C       -1.72916        -5.72993        -8.75329
   S        0.27395        -5.22976        -6.49112
   C        1.29297        -5.70958        -5.16716
   C        2.05144        -4.69081        -4.49392
   C        2.38010        -4.69749        -3.20320
   H        7.38295        -2.42556         5.82164
   H        9.64446        -1.50404         4.95340
   H       11.81780        -3.52269         0.51043
   H       10.03606        -3.48693         0.52895
   H       10.91678        -4.72764         1.46582
   H        6.01263        -5.32726         3.53615
   H        5.48998        -3.76503         6.11976
   H        3.55824        -4.91959         7.52152
   H        1.56975        -7.21169         4.44749
   H        3.05360        -6.43824        -0.28299
   H        4.25973        -3.66408         2.79235
   H        2.46479        -8.53158         1.09845
   H        3.61967        -8.41728         3.93571
   H        2.06397       -10.56261         1.28000
   H        3.13390       -13.13281         5.55401
   H        0.90078       -16.31569         0.70323
   H        1.27457       -17.84219         2.76432
   H        1.41771       -11.89587        -0.19297
   H        0.96821       -14.83439        -0.89510
   H        0.30233       -15.09109        -3.42969
   H        1.61593       -11.29991        -5.01479
   H        3.91000        -8.16325        -1.71798
   H        3.68912       -12.37987        -0.84405
   H        0.91368        -9.55171        -3.85839
   H        2.89368        -7.22934        -3.63608
   H        0.03256        -8.75472        -5.76965
   H       -2.44802        -5.92206        -9.54305
   H       -0.78366        -5.40287        -9.17622
   H       -2.11823        -4.98724        -8.06253
   H        2.32152        -3.83980        -5.10727
   H        2.05448        -5.48010        -2.53910
   H        2.95672        -3.90105        -2.76632
*
