# ORCA input file
# SCF done       -161.705624075807          0.000532126049
! CAM-B3LYP def2-SVP def2/J RIJCOSX Grid4 TightSCF
%maxcore 5000
%tddft
    Mode sTDDFT
    Ethresh 5.0
    maxcore 5000
end

%pal
  nprocs 6
  end
* xyz 0 1
   C      -12.24679        20.72064         3.26050
   O      -13.28195        19.90088         3.48465
   C      -12.83563        18.64449         3.29949
   C      -11.52375        18.64075         2.95793
   C      -11.11489        20.01166         2.92714
   C       -9.82850        20.56382         2.62720
   C       -8.72795        19.84187         2.30797
   C       -7.46728        20.41902         2.03125
   C       -6.35173        19.69043         1.72737
   C       -5.09400        20.25227         1.47868
   C       -3.95526        19.53090         1.19820
   C       -2.65788        20.04119         0.97566
   C       -1.70995        19.08499         0.74590
   C       -2.20996        17.76923         0.76672
   S       -3.92766        17.77685         1.08670
   C       -1.50382        16.58874         0.57787
   C       -0.12149        16.43546         0.36831
   C        0.27409        15.13382         0.23416
   C       -0.77639        14.19868         0.32217
   S       -2.29529        15.02757         0.58980
   C       -0.65123        12.82770         0.21472
   C       -1.66675        11.88229         0.26110
   S       -3.38387        12.21262         0.44791
   C       -3.87665        10.51124         0.35250
   C       -2.71056         9.71908         0.19627
   C       -1.52864        10.49899         0.14858
   O       -0.43750         9.73280        -0.00939
   C       -0.90361         8.45381        -0.06438
   N        0.03068         7.42978        -0.22427
   O       -0.40499         6.28183        -0.26679
   O        1.21007         7.72286        -0.30650
   C       -2.27758         8.38663         0.05536
   C       -5.23301        10.27626         0.41849
   C       -5.98839         9.10884         0.36883
   C       -7.39399         9.09624         0.39692
   C       -7.95312         7.84681         0.32316
   C       -7.01241         6.81128         0.24097
   S       -5.39133         7.47323         0.25876
   C       -7.23842         5.44251         0.14161
   C       -8.48178         4.78585         0.07622
   C       -8.36188         3.43296        -0.03229
   C       -7.02409         2.95395        -0.05272
   S       -5.91651         4.29413         0.10843
   C       -6.72073         1.62796        -0.23658
   C       -5.49176         0.93041        -0.35116
   C       -5.53829        -0.42072        -0.71771
   C       -4.40488        -1.19436        -0.87809
   C       -3.13169        -0.67898        -0.67483
   C       -3.03622         0.68451        -0.27506
   C       -4.19755         1.48291        -0.10745
   N       -4.06607         2.74710         0.32317
   C       -2.87795         3.24457         0.56957
   C       -2.80793         4.62871         1.13192
   C       -2.97116         4.58867         2.65306
   C       -1.71165         2.45460         0.34742
   C       -0.33616         3.00207         0.56772
   C        0.75596         2.00031         0.21843
   N       -1.81901         1.21545        -0.05540
   C       -1.90902        -1.43624        -0.83961
   C       -1.81191        -2.71642        -1.19155
   H      -12.41684        21.77425         3.36318
   H      -13.54106        17.84943         3.43968
   H      -10.91904        17.78217         2.75367
   H       -9.76029        21.64324         2.67106
   H       -8.79239        18.76327         2.26320
   H       -7.39189        21.49835         2.07463
   H       -6.42716        18.61069         1.68299
   H       -4.99550        21.32957         1.52026
   H       -2.46058        21.09863         0.99661
   H       -0.67221        19.29680         0.56072
   H        0.54759        17.27587         0.32723
   H        1.29047        14.82123         0.07202
   H        0.34594        12.43207         0.07023
   H       -2.84988         7.48401         0.03732
   H       -5.83094        11.17578         0.51637
   H       -7.96164        10.00766         0.46358
   H       -9.01173         7.65988         0.32783
   H       -9.42140         5.30938         0.09881
   H       -9.19569         2.75643        -0.10853
   H       -7.59449         0.99356        -0.35178
   H       -6.50540        -0.87087        -0.89421
   H       -4.52042        -2.22616        -1.17251
   H       -3.62205         5.21573         0.70956
   H       -1.86103         5.09346         0.86554
   H       -3.93183         4.15004         2.91303
   H       -2.92642         5.59609         3.05870
   H       -2.18425         3.99464         3.11305
   H       -0.24299         3.30120         1.61549
   H       -0.21916         3.90821        -0.03253
   H        0.66691         1.10935         0.83492
   H        1.73418         2.44575         0.37981
   H        0.67319         1.70295        -0.82331
   H       -1.01407        -0.86121        -0.64589
   H       -2.66859        -3.33651        -1.39577
   H       -0.85254        -3.19494        -1.28717
*
