# ORCA input file
# SCF done       -154.379604578281          0.000890295455
! CAM-B3LYP def2-SVP def2/J RIJCOSX Grid4 TightSCF
%maxcore 5000
%tddft
    Mode sTDDFT
    Ethresh 5.0
    maxcore 5000
end

%pal
  nprocs 6
  end
* xyz 0 1
   C       16.29293         1.87627        -1.32719
   O       16.81500         0.84573        -0.64873
   C       15.81066        -0.01708        -0.41050
   C       14.64481         0.44116        -0.92966
   C       14.94647         1.69816        -1.54153
   C       14.07326         2.59860        -2.23820
   C       12.75366         2.40134        -2.43723
   C       11.92448         3.31380        -3.14624
   C       10.60092         3.10901        -3.35621
   C        9.76844         4.00606        -4.08959
   C        8.42574         3.81685        -4.32801
   O        7.67819         4.69756        -5.09288
   C        8.34005         5.79324        -5.55144
   C        9.72478         5.99926        -5.28833
   C       10.19749         7.15013        -5.82701
   S        8.95551         8.00229        -6.66838
   C        7.78849         6.79114        -6.28460
   O       10.45874         5.10760        -4.57118
   C        7.66345         2.72316        -3.82105
   C        6.34695         2.55547        -4.11203
   C        5.47181         1.54330        -3.64593
   S        3.76982         1.79057        -3.91334
   C        3.34981         0.32183        -3.07346
   C        4.49911        -0.32048        -2.61673
   C        5.68108         0.34795        -2.96319
   C        7.03457        -0.21846        -2.66849
   C        6.97055        -1.73509        -2.42169
   C        6.75996        -2.46123        -3.74457
   O        5.69258        -2.85188        -4.13833
   C        8.03125        -2.68334        -4.52833
   C        5.88762        -2.01957        -1.38080
   C        4.49337        -1.60432        -1.85098
   C        1.96935         0.01726        -2.99845
   C        1.36573        -1.04301        -2.39785
   C       -0.03386        -1.24841        -2.38081
   S       -0.67699        -2.58409        -1.42804
   C       -2.28022        -2.17112        -1.87104
   C       -2.30681        -1.06097        -2.72864
   C       -1.05383        -0.54215        -3.01187
   C       -3.71877        -0.80073        -3.05725
   O       -4.18880         0.05016        -3.77530
   C       -4.48663        -1.85211        -2.28787
   C       -3.58016        -2.64385        -1.59992
   C       -5.88205        -1.89418        -2.34388
   C       -6.69538        -2.74219        -1.62708
   C       -8.08326        -2.72697        -1.72285
   C       -8.93471        -3.52248        -0.98306
   C      -10.34487        -3.54177        -1.04915
   C      -10.93763        -4.41392        -0.18501
   C      -10.02366        -5.13280         0.61770
   S       -8.38077        -4.66836         0.22490
   C      -10.30833        -6.06452         1.59363
   C      -11.59097        -6.51734         2.00260
   C      -11.56899        -7.43283         2.99874
   C      -10.25505        -7.77529         3.45800
   S       -9.05848        -6.85720         2.52967
   C       -9.92202        -8.63868         4.42855
   H       16.95452         2.67232        -1.60654
   H       16.05138        -0.91137         0.12964
   H       13.69240        -0.04454        -0.88694
   H       14.54011         3.49487        -2.62543
   H       12.28080         1.50819        -2.05114
   H       12.38873         4.20742        -3.53768
   H       10.14244         2.21545        -2.96426
   H       11.19152         7.54236        -5.78043
   H        6.77666         6.88395        -6.61882
   H        8.17158         2.05125        -3.15572
   H        5.87928         3.29946        -4.74298
   H        7.44528         0.25969        -1.77254
   H        7.70386        -0.00230        -3.50409
   H        7.94107        -2.05401        -2.02525
   H        7.79495        -2.91201        -5.56415
   H        8.55188        -3.53764        -4.09655
   H        8.69211        -1.82268        -4.47637
   H        6.14574        -1.46995        -0.47174
   H        5.87903        -3.08358        -1.13727
   H        3.84485        -1.50424        -0.97658
   H        4.08058        -2.38415        -2.49499
   H        1.33526         0.74440        -3.48903
   H        1.94644        -1.78962        -1.88233
   H       -0.87919         0.30399        -3.65030
   H       -3.81459        -3.48038        -0.96807
   H       -6.34161        -1.16959        -3.00559
   H       -6.24850        -3.45189        -0.94302
   H       -8.54239        -2.03900        -2.42154
   H      -10.88065        -2.90763        -1.73370
   H      -12.00042        -4.55362        -0.10222
   H      -12.48916        -6.14697         1.54108
   H      -12.43981        -7.88763         3.43645
   H      -10.68150        -9.17517         4.96933
   H       -8.89772        -8.82059         4.69699
*
