# ORCA input file
# SCF done       -150.281659245620          0.000492118440
! CAM-B3LYP def2-SVP def2/J RIJCOSX Grid4 TightSCF
%maxcore 5000
%tddft
    Mode sTDDFT
    Ethresh 5.0
    maxcore 5000
end

%pal
  nprocs 6
  end
* xyz 0 1
   C       -1.21790         4.88337        -2.42771
   O       -2.16441         3.94534        -2.37741
   C       -1.91385         3.17556        -1.30120
   C       -0.80731         3.60907        -0.64984
   C       -0.32989         4.74216        -1.38175
   C        0.82612         5.51723        -1.05027
   C        1.27470         6.58402        -1.75188
   C        2.42817         7.35759        -1.43601
   C        3.24548         7.16989        -0.36504
   C        4.39750         7.92662        -0.06244
   C        5.25125         7.75314         1.02010
   C        6.29047         8.71710         0.93218
   C        6.06935         9.52498        -0.25442
   O        6.69513        10.45116        -0.71979
   N        4.90407         8.98289        -0.79719
   C        7.12861         8.52446         2.00658
   O        6.67141         7.49504         2.76732
   C        5.49594         6.96380         2.20398
   O        4.91461         6.04364         2.70469
   C        8.30238         9.23401         2.33588
   S        8.83618        10.52337         1.30889
   C       10.22346        10.82920         2.32325
   C       10.24344         9.95639         3.40850
   C        9.15993         9.05126         3.41907
   C        8.92279         8.05452         4.38816
   N        8.72317         7.23793         5.16584
   C       11.29865         9.96459         4.46931
   F       11.38039        11.15674         5.09648
   F       11.10446         9.05981         5.42639
   F       12.52761         9.71913         3.96856
   C       11.10755        11.86898         1.92756
   S       12.56956        12.30975         2.79230
   C       12.90940        13.52251         1.64876
   C       11.94192        13.59093         0.64110
   C       10.92675        12.66238         0.79491
   C       12.34893        14.66997        -0.28350
   O       11.80549        15.06372        -1.28271
   C       13.64129        15.20073         0.30691
   C       13.93195        14.49430         1.44476
   C       14.33559        16.25965        -0.32655
   C       15.49165        16.81353         0.11731
   C       16.16093        17.87133        -0.55354
   O       15.68469        18.39427        -1.69814
   C       16.52187        19.37216        -2.10462
   C       17.56697        19.49561        -1.21164
   C       17.33904        18.53297        -0.21425
   C       18.18004        18.26085         0.97810
   F       18.62626        16.98873         1.01718
   F       19.26061        19.04654         1.03384
   F       17.51159        18.44272         2.13528
   C       16.25874        20.10740        -3.31219
   C       15.20993        19.88909        -4.10256
   H       -1.26952         5.58790        -3.23387
   H       -2.58750         2.36385        -1.11170
   H       -0.36976         3.19459         0.23457
   H        1.35560         5.19032        -0.16684
   H        0.72869         6.88722        -2.63446
   H        2.65127         8.16002        -2.12799
   H        3.04441         6.38462         0.34830
   H        4.49040         9.33801        -1.64459
   H       10.08819        12.54756         0.13119
   H       14.78061        14.62956         2.08920
   H       13.88271        16.63437        -1.23536
   H       15.96105        16.46070         1.02293
   H       18.38671        20.18195        -1.26356
   H       16.98927        20.86926        -3.54271
   H       14.48332        19.12940        -3.87081
   H       15.05143        20.46276        -4.99796
*
