# ORCA input file
# SCF done       -158.054355657440          0.000724001893
! CAM-B3LYP def2-SVP def2/J RIJCOSX Grid4 TightSCF
%maxcore 5000
%tddft
    Mode sTDDFT
    Ethresh 5.0
    maxcore 5000
end

%pal
  nprocs 6
  end
* xyz 0 1
   C       14.82743        12.65206         2.54380
   O       15.47866        13.26673         3.53811
   C       15.05027        12.72349         4.69222
   C       14.12731        11.75920         4.45455
   C       13.96629        11.69763         3.03516
   C       13.08233        10.81567         2.32836
   C       12.91244        10.78891         0.99007
   C       12.01714         9.89824         0.33688
   C       11.83161         9.87351        -1.00481
   C       10.93959         8.98383        -1.64938
   S       10.78132         9.03408        -3.43068
   C        9.63978         7.76379        -3.29480
   C        9.46672         7.40644        -1.95227
   N       10.18796         8.08799        -1.07037
   C        8.47589         6.29318        -1.82110
   C        8.11263         6.05969        -3.25803
   C        8.81284         6.93998        -4.08883
   S        8.44463         6.70779        -5.74444
   C        7.33647         5.40955        -5.33122
   C        7.28191         5.19856        -3.96224
   C        6.67051         4.72816        -6.38640
   C        5.82418         3.68939        -6.22168
   C        5.15971         2.98767        -7.29398
   C        4.83029         3.66833        -8.47839
   C        4.10629         3.02145        -9.44800
   C        3.67548         1.69970        -9.26916
   C        2.90393         1.30091       -10.46679
   O        2.35593         0.25723       -10.71799
   N        2.91461         2.41458       -11.29663
   C        3.61477         3.48816       -10.76573
   O        3.75478         4.55770       -11.30350
   C        2.29504         2.43557       -12.60416
   C        3.25560         1.93624       -13.67775
   C        3.99554         1.00456        -8.12940
   C        4.76607         1.63317        -7.13951
   C        5.17438         0.85350        -5.99329
   S        4.14236        -0.44799        -5.42198
   C        5.26847        -0.84235        -4.20131
   C        6.38926        -0.01826        -4.24082
   C        6.34016         0.93738        -5.25500
   C        7.28464        -0.44246        -3.14760
   O        8.34616         0.01897        -2.81025
   C        6.56074        -1.60714        -2.49878
   C        5.37464        -1.80629        -3.15137
   C        7.13969        -2.28880        -1.39978
   C        6.59642        -3.35499        -0.76305
   C        7.21809        -4.01121         0.33358
   O        8.39802        -3.59707         0.82818
   C        8.74420        -4.40427         1.85645
   C        7.77287        -5.36637         2.04006
   C        6.79193        -5.11716         1.06499
   C        5.53811        -5.87850         0.84464
   F        5.46156        -6.40690        -0.39462
   F        5.39772        -6.89650         1.70102
   F        4.43493        -5.11276         0.97547
   C        9.98200        -4.13990         2.53883
   C       10.45315        -4.85259         3.55900
   H       15.05435        12.96565         1.54454
   H       15.47378        13.10547         5.59977
   H       13.61525        11.16016         5.17928
   H       12.51508        10.13087         2.94495
   H       13.47134        11.47175         0.36495
   H       11.45425         9.20427         0.94535
   H       12.37700        10.55172        -1.64643
   H        7.61537         6.58777        -1.21762
   H        8.91951         5.40967        -1.35865
   H        6.66619         4.44373        -3.50841
   H        6.92118         5.06411        -7.38351
   H        5.61586         3.33602        -5.22195
   H        5.11055         4.70131        -8.60972
   H        1.99826         3.46726       -12.80758
   H        1.41086         1.79507       -12.55809
   H        4.13797         2.57086       -13.71704
   H        2.76653         1.95585       -14.64745
   H        3.56215         0.91558       -13.46055
   H        3.67879        -0.02037        -8.00610
   H        7.13300         1.62858        -5.47538
   H        4.63395        -2.55302        -2.93289
   H        8.09694        -1.90643        -1.06927
   H        5.64657        -3.76126        -1.07546
   H        7.75766        -6.14737         2.77095
   H       10.52951        -3.29017         2.15507
   H        9.92387        -5.70147         3.95473
   H       11.38768        -4.60315         4.02841
*
