# ORCA input file
# SCF done       -155.410810795153          0.000901804571
! CAM-B3LYP def2-SVP def2/J RIJCOSX Grid4 TightSCF
%maxcore 5000
%tddft
    Mode sTDDFT
    Ethresh 5.0
    maxcore 5000
end

%pal
  nprocs 6
  end
* xyz 0 1
   C       -4.15595        -0.38033        -0.12583
   C       -3.76596        -1.27410        -1.15694
   C       -2.56394        -1.09160        -1.80575
   C       -1.73734        -0.00944        -1.45590
   C       -2.14421         0.89348        -0.43376
   C       -3.37206         0.67716         0.22607
   N       -1.36744         1.94130        -0.09014
   C       -0.23628         2.07944        -0.72667
   C        0.17535         1.17546        -1.73082
   N       -0.55522         0.15666        -2.08910
   C       -4.65696        -2.37665        -1.46968
   O       -5.51005        -2.78808        -0.51844
   C       -6.24784        -3.81200        -1.00496
   C       -5.87517        -4.06459        -2.30799
   C       -4.85275        -3.14222        -2.60961
   C       -4.19390        -3.02632        -3.93737
   F       -4.08413        -1.75519        -4.35929
   F       -2.94752        -3.53891        -3.95700
   F       -4.87718        -3.68301        -4.88575
   C       -7.22611        -4.45265        -0.18926
   C       -7.49088        -4.08522         1.08284
   C       -8.45773        -4.72896         1.90628
   O       -9.16755        -5.78359         1.46893
   C       -9.99681        -6.18760         2.46176
   C       -9.82454        -5.37599         3.56907
   C       -8.83882        -4.44271         3.21426
   C       -8.29279        -3.35202         4.06209
   F       -8.45931        -2.13487         3.50668
   F       -8.86652        -3.30405         5.26828
   F       -6.96670        -3.47495         4.26942
   C      -10.84191        -7.30862         2.22557
   C      -11.71312        -7.80905         3.12888
   C      -12.53858        -8.94125         2.87819
   O      -12.49397        -9.60007         1.70493
   C      -13.37201       -10.62874         1.75696
   C      -14.00252       -10.64145         2.98612
   C      -13.46998        -9.55929         3.70607
   C      -13.82220        -9.14349         5.08715
   F      -12.76850        -9.19682         5.92704
   F      -14.26697        -7.87209         5.14647
   F      -14.77823        -9.90909         5.62429
   C      -13.53841       -11.50902         0.64387
   C      -12.86573       -11.37387        -0.51453
   C      -12.97510       -12.21503        -1.68472
   C      -13.81091       -13.36183        -1.72399
   C      -13.90082       -14.14106        -2.83825
   C      -13.15580       -13.81856        -3.99232
   C      -12.31153       -12.67288        -3.97033
   C      -12.23693       -11.89049        -2.80756
   N      -11.58350       -12.33381        -5.05803
   C      -11.69392       -13.09817        -6.10945
   C      -12.53097       -14.23453        -6.12905
   N      -13.24613       -14.58841        -5.09510
   H       -5.09744        -0.55196         0.37256
   H       -2.20280        -1.76427        -2.56515
   H       -3.66126         1.36485         1.00433
   H        0.37872         2.92417        -0.44672
   H        1.12083         1.29909        -2.24210
   H       -6.27988        -4.80323        -2.96837
   H       -7.76072        -5.27158        -0.64601
   H       -6.95458        -3.26308         1.53203
   H      -10.33187        -5.43897         4.50884
   H      -10.75208        -7.76813         1.25193
   H      -11.81707        -7.35918         4.10363
   H      -14.74634       -11.33166         3.32636
   H      -14.25610       -12.29886         0.80307
   H      -12.16791       -10.55133        -0.60059
   H      -14.38470       -13.62318        -0.84927
   H      -14.53335       -15.01413        -2.87112
   H      -11.58842       -11.02777        -2.81996
   H      -11.10906       -12.81998        -6.97632
   H      -12.60905       -14.85700        -7.01031
*
