# ORCA input file
# SCF done       -188.340551694974          0.000849495663
! CAM-B3LYP def2-SVP def2/J RIJCOSX Grid4 TightSCF
%maxcore 5000
%tddft
    Mode sTDDFT
    Ethresh 5.0
    maxcore 5000
end

%pal
  nprocs 6
  end
* xyz 0 1
   C       -0.12388        -9.18745         6.50306
   S        0.28477        -9.37012         4.85660
   C        1.28945        -7.94762         4.86642
   C        1.28715        -7.36584         6.13861
   C        0.47542        -8.08592         7.07261
   C        0.37880        -7.62770         8.40889
   C        1.05230        -6.51497         8.80710
   C        0.98284        -5.99965        10.20909
   C        1.86392        -5.79854         7.86525
   O        2.48609        -4.70449         8.38661
   C        3.30706        -3.93415         7.54570
   C        1.97746        -6.21335         6.56521
   C        1.97628        -7.50934         3.71255
   C        1.98832        -8.16562         2.52576
   C        2.73489        -7.72656         1.39355
   C        2.68544        -8.32309         0.16270
   O        3.57246        -8.00095        -0.86053
   C        4.43517        -6.98691        -0.59008
   C        4.43655        -6.31624         0.66827
   C        5.36018        -5.32673         0.73508
   S        6.24664        -5.19534        -0.74013
   C        5.35822        -6.49270        -1.45104
   O        3.59555        -6.67260         1.67575
   C        1.79160        -9.36312        -0.26113
   C        0.52949        -9.58060         0.15590
   C       -0.32750       -10.64458        -0.31526
   C       -1.68949       -10.59528        -0.02638
   C       -2.58555       -11.57081        -0.45969
   C       -2.08825       -12.65367        -1.22108
   C       -0.71886       -12.71757        -1.48854
   C        0.14411       -11.74206        -1.04998
   N       -2.92284       -13.65949        -1.71889
   C       -4.14479       -13.36566        -2.33380
   C       -4.32661       -12.16584        -3.02232
   C       -5.54985       -11.87100        -3.59164
   C       -6.60360       -12.76631        -3.50237
   C       -6.42212       -13.96787        -2.83694
   C       -5.20797       -14.26644        -2.25083
   C       -2.44919       -14.98056        -1.71177
   C       -1.75647       -15.46204        -0.60139
   C       -1.28190       -16.75898        -0.58739
   C       -1.49554       -17.59517        -1.67116
   C       -2.18541       -17.12161        -2.77516
   C       -2.65726       -15.82339        -2.80217
   C       -3.99191       -11.49232        -0.14537
   C       -4.67195       -10.36517         0.14997
   C       -6.08605       -10.32852         0.27024
   S       -7.03628       -11.66475        -0.28844
   C       -8.54147       -10.83651        -0.03221
   C       -8.31042        -9.56734         0.52117
   C       -6.91331        -9.27954         0.68645
   C       -6.52246        -8.03360         1.24577
   C       -5.17397        -7.69426         1.48570
   N       -4.10198        -7.35864         1.72234
   C       -7.48445        -7.10664         1.60287
   C       -8.84041        -7.37921         1.42821
   C       -9.26312        -8.58725         0.90130
   C      -10.65660        -8.77715         0.78132
   N      -11.79979        -8.85868         0.72148
   C       -9.76041       -11.43216        -0.41923
   C       -9.83409       -12.63953        -1.04218
   C      -11.02164       -13.25101        -1.49881
   S      -10.90535       -14.80339        -2.31860
   C      -12.59561       -14.83469        -2.55637
   C      -13.21600       -13.70385        -2.03039
   C      -12.33966       -12.80878        -1.43316
   C      -14.66979       -13.83120        -2.30185
   O      -15.54447       -13.05664        -2.00572
   C      -14.79825       -15.14899        -3.03328
   C      -13.55715       -15.70366        -3.15771
   C      -16.02328       -15.71596        -3.51757
   C      -17.22764       -15.15374        -3.39698
   H       -0.77961        -9.89540         6.96949
   H       -0.23522        -8.17735         9.10675
   H        0.34222        -6.62883        10.82087
   H        0.59720        -4.98144        10.21433
   H        1.97989        -5.97001        10.64562
   H        3.69174        -3.12671         8.16696
   H        2.74102        -3.50956         6.71012
   H        4.14510        -4.52065         7.15487
   H        2.58701        -5.67950         5.85505
   H        2.52122        -6.58051         3.80024
   H        1.45689        -9.09826         2.42567
   H        5.57128        -4.67316         1.55510
   H        5.56590        -6.81102        -2.45084
   H        2.19655        -9.94982        -1.07512
   H        0.07077        -8.89708         0.85618
   H       -2.06061        -9.77903         0.57516
   H       -0.34084       -13.54934        -2.06544
   H        1.19442       -11.83063        -1.27716
   H       -3.50494       -11.46957        -3.10431
   H       -5.67832       -10.93684        -4.11834
   H       -7.55763       -12.53075        -3.94908
   H       -7.23532       -14.67579        -2.76500
   H       -5.07711       -15.19511        -1.71474
   H       -1.59509       -14.81106         0.24553
   H       -0.74787       -17.12104         0.27861
   H       -1.12543       -18.60889        -1.65615
   H       -2.34929       -17.76462        -3.62723
   H       -3.18364       -15.45223        -3.66933
   H       -4.54962       -12.41812        -0.19658
   H       -4.15845        -9.42024         0.23727
   H       -7.17927        -6.16262         2.02879
   H       -9.57501        -6.64193         1.71525
   H      -10.66260       -10.87418        -0.22682
   H       -8.91585       -13.18321        -1.22778
   H      -12.63023       -11.88182        -0.97396
   H      -13.32492       -16.64033        -3.63207
   H      -15.91760       -16.67442        -4.01367
   H      -17.35977       -14.20528        -2.90762
   H      -18.10998       -15.63466        -3.78296
*
