# ORCA input file
# SCF done       -163.836228413008          0.000923471621
! CAM-B3LYP def2-SVP def2/J RIJCOSX Grid4 TightSCF
%maxcore 5000
%tddft
    Mode sTDDFT
    Ethresh 5.0
    maxcore 5000
end

%pal
  nprocs 6
  end
* xyz 0 1
   C       -2.17807        -0.88201        -3.76365
   S       -2.37322        -2.54949        -3.51125
   C       -3.84376        -2.32737        -2.58873
   C       -4.16412        -0.95810        -2.51598
   C       -3.19327        -0.14549        -3.19022
   C       -3.34160         1.26060        -3.22369
   C       -4.41434         1.85445        -2.63546
   C       -4.61640         3.33498        -2.64785
   C       -5.39997         1.04132        -1.98498
   O       -6.42971         1.74446        -1.46335
   C       -7.47881         1.05720        -0.81796
   C       -5.27423        -0.32772        -1.92441
   C       -4.42686        -3.50649        -2.09112
   C       -5.47603        -3.65731        -1.23097
   C       -5.94719        -4.91553        -0.81266
   S       -5.23998        -6.38626        -1.41182
   C       -6.29769        -7.39991        -0.47529
   C       -7.17165        -6.61623         0.29600
   C       -6.97958        -5.20926         0.09976
   C       -7.80027        -4.29907         0.81098
   C       -7.71823        -2.90025         0.66538
   N       -7.72856        -1.75388         0.59462
   C       -8.75664        -4.77093         1.69656
   C       -8.93035        -6.13641         1.89744
   C       -8.15970        -7.06053         1.21096
   C       -8.42525        -8.42073         1.47910
   N       -8.71731        -9.49747         1.75120
   C       -6.20266        -8.79811        -0.52413
   C       -5.32425        -9.49755        -1.29780
   C       -5.21401       -10.90284        -1.27626
   S       -4.73312       -11.73802        -2.72023
   C       -5.07367       -13.30408        -2.04542
   C       -5.49593       -13.18049        -0.71041
   C       -5.52553       -11.82060        -0.25797
   C       -5.73106       -11.55501         1.12107
   C       -5.47380       -10.29859         1.71389
   N       -5.20070        -9.33852         2.28064
   C       -6.06410       -12.59112         1.97614
   C       -6.16277       -13.89911         1.50802
   C       -5.85248       -14.21390         0.19532
   C       -5.92779       -15.57982        -0.15473
   N       -6.04094       -16.70660        -0.34473
   C       -4.89050       -14.48372        -2.79231
   C       -4.45579       -14.51664        -4.08116
   C       -4.18538       -15.68862        -4.84228
   C       -3.85334       -16.91758        -4.32518
   O       -3.72788       -18.04626        -5.10712
   C       -3.87462       -17.84795        -6.44612
   C       -4.12969       -16.55629        -6.99457
   C       -4.21658       -16.56696        -8.34700
   S       -3.99035       -18.15766        -8.97575
   C       -3.77539       -18.81163        -7.39503
   O       -4.28421       -15.45661        -6.20566
   C       -3.54191       -17.12868        -2.94345
   C       -3.55790       -18.32279        -2.32411
   C       -3.25175       -18.44387        -0.91578
   N       -2.93070       -17.33256        -0.24057
   C       -2.71103       -17.46513         1.05197
   C       -2.79121       -18.68550         1.70381
   C       -3.10405       -19.79775         0.91424
   N       -3.33137       -19.66036        -0.38881
   C       -3.18736       -21.13435         1.49203
   C       -3.47921       -22.21332         0.77676
   H       -1.33697        -0.51407        -4.31726
   H       -2.59189         1.85114        -3.72869
   H       -3.80450         3.83192        -3.17190
   H       -4.67087         3.71200        -1.62772
   H       -5.56056         3.57838        -3.13284
   H       -8.17877         1.82746        -0.49872
   H       -7.12513         0.50174         0.05286
   H       -7.98505         0.36845        -1.50043
   H       -6.02925        -0.91588        -1.43427
   H       -3.94297        -4.41661        -2.43051
   H       -5.96982        -2.79730        -0.81524
   H       -9.37236        -4.06620         2.23494
   H       -9.67703        -6.48465         2.59508
   H       -6.90502        -9.34266         0.08638
   H       -4.72739        -8.97026        -2.03152
   H       -6.23110       -12.38005         3.02127
   H       -6.44529       -14.69030         2.18632
   H       -5.13818       -15.40459        -2.28953
   H       -4.35896       -13.59023        -4.63344
   H       -4.39878       -15.74212        -9.00321
   H       -3.58937       -19.85586        -7.25683
   H       -3.24653       -16.26406        -2.36900
   H       -3.85280       -19.22879        -2.82932
   H       -2.45901       -16.55432         1.58364
   H       -2.61568       -18.77624         2.76380
   H       -2.99400       -21.19710         2.55494
   H       -3.66872       -22.12644        -0.27932
   H       -3.53644       -23.19403         1.21696
*
