# ORCA input file
# SCF done       -151.214689113445          0.000582932500
! CAM-B3LYP def2-SVP def2/J RIJCOSX Grid4 TightSCF
%maxcore 5000
%tddft
    Mode sTDDFT
    Ethresh 5.0
    maxcore 5000
end

%pal
  nprocs 6
  end
* xyz 0 1
   O      -10.56381         8.24430         3.20437
   C       -9.33673         8.78703         3.43591
   N       -9.36138        10.08337         3.54789
   C      -10.67393        10.43566         3.38176
   C      -11.40095         9.28794         3.17188
   C      -11.11983        11.82105         3.42822
   O      -12.25834        12.18296         3.27639
   C       -8.19755         7.94417         3.51565
   S       -6.62054         8.59225         3.85767
   C       -5.86860         7.02670         3.74121
   C       -6.81504         6.04301         3.44955
   C       -8.12624         6.58039         3.33472
   S       -9.30300         5.36082         3.00937
   C       -8.03880         4.12758         3.03717
   C       -8.35070         2.70682         2.84711
   O       -7.47588         1.86918         2.85121
   C       -9.81664         2.38592         2.65749
   C      -10.06822         0.88787         2.56752
   C       -6.79626         4.64285         3.27245
   C       -4.48453         6.84493         3.91736
   S       -3.45893         8.16637         4.54827
   C       -2.12830         7.10005         4.40039
   C       -2.54424         5.85827         3.89078
   N       -3.83933         5.73911         3.64542
   C       -1.37608         4.93919         3.71931
   C       -0.24874         5.81052         4.19312
   C       -0.73646         7.05951         4.59967
   S        0.50247         8.08815         5.18635
   C        1.70278         6.85042         4.85401
   C        1.12705         5.70041         4.32617
   C        3.05554         7.14767         5.13282
   C        4.13484         6.43663         4.71217
   C        5.46283         6.80428         5.00765
   S        5.87243         8.07086         6.14144
   C        7.60218         7.93136         5.85906
   C        7.84153         6.90505         4.92869
   C        6.63683         6.29768         4.48005
   S        6.91688         5.02603         3.34200
   C        8.65007         5.27682         3.48475
   C        9.61255         4.48025         2.72192
   O       10.80625         4.63471         2.86543
   C        9.00962         3.47899         1.76010
   C       10.07246         2.76043         0.94229
   C        8.96989         6.28318         4.35342
   C        8.39768         8.82113         6.58571
   C        9.70593         9.22356         6.44085
   C       10.32742        10.16227         7.30516
   C       11.59049        10.51488         6.94650
   C       12.04618         9.88045         5.76766
   S       10.81113         8.79725         5.15261
   C       13.25384        10.04863         5.12860
   C       14.32126        10.90249         5.52597
   C       15.38707        10.88230         4.69573
   C       15.24290        10.00444         3.56986
   S       13.66230         9.20890         3.64990
   C       16.12393         9.78355         2.58452
   H      -12.44280         9.11118         3.00152
   H      -10.29378        12.52864         3.61754
   H      -10.15330         2.88782         1.74584
   H      -10.37517         2.82134         3.49031
   H       -9.49911         0.46137         1.74568
   H      -11.12463         0.68758         2.40870
   H       -9.75061         0.39927         3.48521
   H       -5.90638         4.04320         3.32110
   H       -1.25693         4.63325         2.67848
   H       -1.47900         4.03404         4.32054
   H        1.70053         4.82763         4.07319
   H        3.23361         8.05176         5.70206
   H        4.01613         5.56501         4.08318
   H        8.31280         4.00879         1.10510
   H        8.42397         2.76273         2.34347
   H       10.65193         3.47982         0.36928
   H        9.61332         2.05128         0.25828
   H       10.75468         2.22779         1.59957
   H        9.99339         6.53714         4.55216
   H        7.86350         9.33562         7.37751
   H        9.81181        10.54822         8.16697
   H       12.19924        11.21529         7.48900
   H       14.25695        11.50246         6.41634
   H       16.28447        11.45962         4.83061
   H       17.07297        10.29000         2.57315
   H       15.91491         9.10047         1.78187
*
