# ORCA input file
# SCF done       -153.255246355050          0.000596199392
! CAM-B3LYP def2-SVP def2/J RIJCOSX Grid4 TightSCF
%maxcore 5000
%tddft
    Mode sTDDFT
    Ethresh 5.0
    maxcore 5000
end

%pal
  nprocs 6
  end
* xyz 0 1
   O       -2.42892         3.65716         2.47513
   C       -2.72845         3.18498         1.23851
   N       -3.37176         2.05600         1.26167
   C       -3.51472         1.74786         2.58481
   C       -2.92496         2.75094         3.32034
   C       -4.19687         0.53908         3.03610
   O       -4.34753         0.23085         4.18927
   C       -2.34562         3.91350         0.07065
   O       -1.69933         5.08378         0.18151
   C       -1.46466         5.55755        -1.06296
   C       -1.97032         4.67047        -1.99872
   C       -2.53709         3.61294        -1.26920
   C       -3.20979         2.40628        -1.82797
   F       -4.49379         2.30883        -1.45594
   F       -3.20686         2.42444        -3.17120
   F       -2.60956         1.26358        -1.46614
   C       -0.78439         6.80128        -1.19219
   C       -0.49081         7.39429        -2.37164
   C        0.18908         8.62973        -2.49291
   S        0.74528         9.57467        -1.12078
   C        1.42773        10.83542        -2.10324
   C        1.22897        10.53208        -3.45391
   C        0.53945         9.30455        -3.64701
   O        0.37164         9.05206        -4.95938
   C        0.94810        10.10633        -5.60394
   N        0.92683        10.12054        -7.01538
   O        1.44816        11.08396        -7.55071
   O        0.40263         9.19087        -7.59078
   C        1.48507        11.03551        -4.74866
   C        2.08584        11.97784        -1.60612
   O        2.56559        12.86616        -2.50540
   C        3.17185        13.87651        -1.83451
   C        3.08061        13.63820        -0.46743
   C        2.38827        12.43289        -0.31926
   C        2.05022        11.78077         0.97248
   F        2.59639        10.55554         1.09834
   F        2.47825        12.49441         2.01995
   F        0.72402        11.61455         1.14204
   C        3.77638        14.95018        -2.52220
   C        3.74267        15.07365        -3.88402
   C        4.32419        16.07946        -4.67104
   C        5.12955        17.13098        -4.29697
   C        5.66689        18.08544        -5.20213
   C        6.46329        19.02647        -4.63051
   C        6.60946        18.87704        -3.23029
   S        5.68153        17.49508        -2.67628
   C        7.35152        19.64881        -2.36691
   C        8.14135        20.78872        -2.69475
   C        8.77369        21.34727        -1.64041
   C        8.53213        20.68889        -0.38757
   S        7.44284        19.31719        -0.65305
   C        9.02363        21.01093         0.81596
   H       -2.81109         2.90412         4.37394
   H       -4.56880        -0.07610         2.19986
   H       -1.94210         4.75892        -3.06447
   H       -0.49754         7.27527        -0.26345
   H       -0.77093         6.93090        -3.30708
   H        1.98651        11.93731        -5.02981
   H        3.46321        14.25690         0.31760
   H        4.26307        15.68133        -1.89790
   H        3.19906        14.31325        -4.42894
   H        4.12746        16.01876        -5.73414
   H        5.44432        18.03792        -6.25357
   H        6.95052        19.81632        -5.17292
   H        8.20952        21.15030        -3.70518
   H        9.41285        22.21060        -1.69128
   H        9.68412        21.85217         0.93137
   H        8.77924        20.44672         1.69725
*
