# ORCA input file
# SCF done       -165.853358131918          0.000892819668
! CAM-B3LYP def2-SVP def2/J RIJCOSX Grid4 TightSCF
%maxcore 5000
%tddft
    Mode sTDDFT
    Ethresh 5.0
    maxcore 5000
end

%pal
  nprocs 6
  end
* xyz 0 1
   C       -1.48134        -1.23968        -5.95905
   N       -0.23866        -1.58169        -5.64388
   C       -0.06767        -2.46640        -4.70325
   C       -1.19542        -3.11361        -4.12127
   N       -2.39202        -2.61383        -4.43303
   N       -2.53092        -1.67848        -5.29415
   C       -1.10349        -4.19466        -3.19884
   C       -0.25724        -5.31265        -3.24650
   N        0.62645        -5.64405        -4.27020
   O        1.38108        -6.58933        -4.10499
   O        0.59749        -4.97632        -5.30262
   C       -0.57622        -6.17044        -2.15534
   C       -1.64339        -5.63426        -1.48446
   C       -1.99841        -4.39775        -2.09290
   C       -2.95692        -3.47574        -1.63067
   C       -2.78533        -2.08816        -1.52285
   C       -3.81396        -1.55990        -0.75999
   C       -4.69621        -2.59303        -0.40063
   N       -5.86094        -2.38755         0.34069
   O       -6.58864        -3.34457         0.58622
   O       -6.09560        -1.25128         0.72358
   C       -4.23154        -3.80888        -0.98176
   C       -4.96559        -4.97615        -1.10811
   C       -4.71160        -5.98655        -2.02891
   C       -5.50323        -7.11460        -2.18647
   C       -6.72891        -7.39547        -1.52377
   C       -7.30167        -8.51672        -2.08339
   O       -8.44238        -9.13850        -1.77791
   C       -9.21035        -8.60067        -0.71925
   C       -6.42974        -9.03964        -3.10863
   C       -5.31999        -8.13527        -3.21377
   C       -4.30443        -8.16771        -4.15938
   C       -2.98243        -7.70948        -4.03189
   C       -2.31491        -7.96069        -5.21894
   O       -1.03755        -7.70323        -5.38784
   C       -0.38424        -8.08941        -6.58412
   C       -3.26688        -8.52797        -6.17681
   C       -4.44282        -8.67389        -5.54672
   C       -6.60247       -10.29733        -3.68467
   C       -5.61201       -11.00206        -4.33653
   C       -5.76297       -12.19990        -5.03651
   C       -4.73191       -12.83356        -5.73502
   C       -5.22496       -13.98975        -6.35748
   C       -6.65503       -14.07202        -5.99355
   C       -6.96623       -12.99321        -5.22797
   C       -7.55975       -15.06533        -6.38424
   N       -8.32765       -15.86428        -6.68675
   C       -4.52264       -14.87878        -7.16111
   C       -4.95437       -16.12866        -7.66581
   C       -3.92196       -16.71489        -8.38124
   C       -2.79888       -15.79961        -8.36315
   C       -3.14421       -14.69901        -7.63510
   C       -2.33980       -13.57203        -7.44728
   N       -1.67048       -12.64478        -7.32369
   C       -3.97515       -17.98867        -9.00239
   C       -2.95507       -18.57750        -9.67160
   C       -3.07069       -19.87385       -10.26598
   N       -1.99258       -20.38109       -10.89292
   C       -2.11351       -21.57136       -11.42467
   C       -3.32237       -22.27129       -11.32646
   N       -4.34120       -21.70792       -10.70218
   N       -4.23117       -20.54176       -10.18628
   H       -1.64007        -0.53934        -6.76328
   H        0.93780        -2.64181        -4.35226
   H       -0.05919        -7.08662        -1.94347
   H       -2.10650        -6.02638        -0.59862
   H       -1.93535        -1.53970        -1.88220
   H       -3.93462        -0.53356        -0.46742
   H       -5.85828        -5.03769        -0.50050
   H       -3.88800        -5.85225        -2.71198
   H       -7.14729        -6.79365        -0.74036
   H      -10.08515        -9.24110        -0.62694
   H       -9.52503        -7.57794        -0.94249
   H       -8.64642        -8.60996         0.21721
   H       -2.50704        -7.37014        -3.13499
   H        0.66704        -7.85302        -6.42729
   H       -0.76438        -7.51830        -7.43493
   H       -0.50229        -9.15907        -6.77085
   H       -3.04473        -8.76108        -7.20037
   H       -5.37405        -8.98819        -5.97673
   H       -7.57185       -10.75578        -3.53882
   H       -4.60551       -10.60511        -4.31092
   H       -3.72049       -12.48182        -5.78555
   H       -7.93332       -12.76673        -4.81941
   H       -5.91991       -16.56322        -7.49394
   H       -1.85600       -15.95858        -8.85130
   H       -4.91042       -18.52803        -8.92344
   H       -1.99315       -18.10267        -9.78977
   H       -1.24775       -21.97612       -11.93205
   H       -3.47863       -23.25590       -11.73632
*
