# ORCA input file
# SCF done       -196.475751744856          0.000953742165
! CAM-B3LYP def2-SVP def2/J RIJCOSX Grid4 TightSCF
%maxcore 5000
%tddft
    Mode sTDDFT
    Ethresh 5.0
    maxcore 5000
end

%pal
  nprocs 6
  end
* xyz 0 1
   C        6.86910        -1.72169        -1.84190
   O        7.57704        -2.38272        -1.11027
   C        7.06979        -1.37039        -3.23589
   C        6.19844        -0.35739        -3.63000
   C        6.38768         0.02686        -4.97077
   C        7.38585        -0.70083        -5.54928
   S        8.11896        -1.84920        -4.49377
   C        5.34689         0.00229        -2.51792
   C        4.44877         1.03290        -2.49545
   C        4.24833         1.86918        -3.61450
   N        4.07751         2.55663        -4.51652
   C        3.67783         1.39143        -1.37167
   N        3.04975         1.72466        -0.47031
   C        5.64722        -0.94651        -1.45205
   C        4.92187        -1.18593        -0.34053
   C        5.11103        -2.30394         0.54013
   C        5.34903        -3.64511         0.21829
   N        5.41813        -4.24375        -1.04500
   O        5.12382        -3.59263        -2.03958
   O        5.78197        -5.40873        -1.09257
   C        5.47689        -4.40724         1.42551
   C        5.41474        -3.55026         2.47519
   C        5.19242        -2.21158         1.96950
   C        5.20541        -1.05611         2.76163
   C        4.43424         0.11097         2.69242
   C        4.61477         0.83650         3.86283
   C        5.55828         0.18813         4.67910
   N        6.02098         0.68128         5.90531
   O        6.87937         0.04224         6.49954
   O        5.53354         1.71912         6.31884
   C        6.01819        -0.96615         3.99665
   C        7.12839        -1.74200         4.25802
   C        7.74557        -2.53803         3.28759
   C        8.63075        -3.56579         3.52526
   S        9.13047        -4.05487         5.12294
   C       10.03929        -5.40498         4.51879
   C        9.93618        -5.49678         3.10354
   C        9.15834        -4.45464         2.53825
   C        8.93618        -4.40763         1.16400
   C        9.46253        -5.39100         0.34468
   C        9.17102        -5.37352        -1.11533
   C       10.23818        -6.41588         0.91259
   C       10.48432        -6.47411         2.26265
   C       10.74127        -6.26552         5.36442
   C       10.83798        -6.10102         6.72433
   C       11.51656        -6.96283         7.59871
   C       11.64572        -6.77670         8.97189
   C       12.35995        -7.86176         9.52730
   C       12.68828        -8.75658         8.40027
   C       12.19054        -8.20852         7.26184
   C       13.42117        -9.94857         8.46130
   N       14.03308       -10.92058         8.47158
   C       12.68250        -8.07917        10.85449
   C       13.28336        -9.23428        11.40869
   C       13.39349        -9.08026        12.77943
   C       12.86516        -7.76503        13.11912
   C       12.43398        -7.15917        11.98314
   C       11.87929        -5.87729        11.90368
   N       11.43005        -4.82079        11.86228
   C       13.87007       -10.01540        13.72772
   C       14.33865       -11.25147        13.39753
   C       14.73174       -12.20856        14.35745
   C       14.98827       -13.52834        14.14280
   C       15.70621       -14.31345        15.20067
   O       15.91475       -13.96015        16.33761
   C       16.10971       -15.53133        14.51125
   C       15.61277       -15.56318        13.21156
   C       14.80058       -14.38122        12.98096
   C       13.90677       -14.25285        11.95084
   C       13.82244       -15.22273        10.92674
   N       13.74440       -15.99664        10.08375
   C       12.91467       -13.25898        11.82219
   N       12.05159       -12.51644        11.67581
   C       15.98574       -16.72994        12.51855
   C       16.75241       -17.53909        13.30521
   S       17.03099       -16.92004        14.88924
   H        5.82596         0.78653        -5.48212
   H        7.74129        -0.62454        -6.55847
   H        4.10690        -0.52277        -0.08705
   H        5.58685        -5.47379         1.44622
   H        5.41466        -3.80605         3.51691
   H        3.73178         0.36462         1.92216
   H        4.11965         1.75322         4.12499
   H        7.55754        -1.69206         5.25254
   H        7.54151        -2.32254         2.24828
   H        8.35301        -3.61631         0.72182
   H        8.24919        -5.92731        -1.30102
   H        9.96901        -5.83760        -1.68874
   H        9.01061        -4.35505        -1.45919
   H       10.64720        -7.17738         0.26535
   H       11.08408        -7.27233         2.67123
   H       11.23749        -7.10375         4.89685
   H       10.35882        -5.23992         7.17483
   H       11.25252        -5.94686         9.52616
   H       12.27507        -8.62760         6.27679
   H       13.55361       -10.10313        10.84412
   H       12.83127        -7.35822        14.11307
   H       13.80368        -9.73809        14.77246
   H       14.41847       -11.51660        12.35457
   H       14.89308       -11.86622        15.37484
   H       15.71759       -16.96261        11.50485
   H       17.17523       -18.48800        13.03831
*
