# ORCA input file
# SCF done       -194.357937419013          0.000787406031
! CAM-B3LYP def2-SVP def2/J RIJCOSX Grid4 TightSCF
%maxcore 5000
%tddft
    Mode sTDDFT
    Ethresh 5.0
    maxcore 5000
end

%pal
  nprocs 6
  end
* xyz 0 1
   C       -2.60224         0.22223        -5.77304
   C       -1.27074         0.54533        -6.03450
   N       -1.04735         1.71381        -6.83807
   O       -1.97209         2.11697        -7.51066
   O        0.04697         2.24650        -6.80398
   C       -0.22719        -0.25310        -5.54424
   C        1.24110         0.04068        -5.76923
   O        1.70144         1.09706        -4.96903
   C       -0.57298        -1.36982        -4.79932
   C       -1.89846        -1.69987        -4.52698
   C       -2.91891        -0.88086        -5.01722
   C       -2.22096        -2.87241        -3.73140
   C       -1.82337        -4.17991        -3.92810
   N       -1.07892        -4.70271        -5.00050
   O       -0.73778        -5.86976        -4.93125
   O       -0.83881        -3.97878        -5.95416
   C       -2.42338        -5.02195        -2.91748
   C       -3.25145        -4.25763        -2.16725
   C       -3.15567        -2.88948        -2.62268
   C       -3.75393        -1.79277        -2.02372
   C       -3.19979        -0.49569        -1.87025
   C       -3.91596         0.17479        -0.91248
   C       -5.01065        -0.63217        -0.49000
   N       -5.97587        -0.19798         0.42829
   O       -6.89701        -0.95258         0.71091
   O       -5.83776         0.91558         0.90507
   C       -4.98854        -1.83833        -1.20870
   C       -6.02371        -2.76799        -1.32723
   C       -6.18584        -3.61156        -2.40778
   C       -7.24502        -4.51465        -2.56028
   C       -8.33566        -4.67826        -1.70311
   C       -9.26411        -5.56051        -2.28054
   O      -10.30690        -5.97347        -1.55484
   C      -10.89739        -7.24155        -1.76027
   C       -8.80779        -5.92963        -3.57521
   C       -7.50380        -5.33907        -3.74661
   C       -6.66070        -5.47795        -4.83350
   C       -5.25618        -5.31121        -4.84234
   C       -4.79350        -5.51867        -6.12199
   O       -3.51581        -5.45476        -6.44352
   C       -3.10358        -5.73097        -7.76973
   C       -5.94806        -5.77999        -6.99375
   C       -7.04809        -5.78857        -6.22727
   C       -9.43659        -6.75938        -4.53838
   C      -10.77741        -6.80735        -4.78205
   C      -11.37115        -7.64724        -5.75281
   C      -10.76580        -8.52742        -6.62990
   C      -11.76035        -9.19858        -7.38642
   C      -13.05934        -8.66834        -6.91764
   C      -12.81095        -7.73764        -5.96303
   C      -14.33094        -9.04519        -7.36422
   N      -15.38897        -9.34071        -7.69935
   C      -11.56999       -10.16337        -8.34932
   C      -12.56841       -10.91907        -9.03740
   C      -11.96163       -11.82124        -9.87568
   C      -10.52439       -11.63890        -9.75481
   C      -10.27662       -10.65629        -8.84576
   C       -9.01083       -10.18446        -8.48776
   N       -7.96373        -9.79593        -8.21435
   C      -12.60625       -12.79851       -10.72445
   C      -11.89696       -13.46697       -11.73120
   C      -12.52858       -14.40200       -12.51420
   C      -13.88089       -14.69227       -12.32954
   C      -14.62299       -14.03720       -11.33466
   C      -13.96015       -13.10596       -10.55239
   C      -16.09512       -14.28607       -11.07646
   O      -16.91581       -13.70037       -12.04986
   N      -14.44009       -15.69418       -13.19103
   O      -13.66965       -16.44130       -13.75597
   O      -15.65039       -15.74871       -13.31698
   H       -3.37413         0.86207        -6.17351
   H        1.42200         0.24502        -6.83327
   H        1.82476        -0.83643        -5.48076
   H        1.38463         1.92289        -5.36567
   H        0.21493        -1.99497        -4.40893
   H       -3.95076        -1.12593        -4.81776
   H       -2.22563        -6.07286        -2.83079
   H       -3.82302        -4.56738        -1.31384
   H       -2.29032        -0.16010        -2.32931
   H       -3.71098         1.15210        -0.51675
   H       -6.78903        -2.72739        -0.56425
   H       -5.49356        -3.52199        -3.23033
   H       -8.47619        -4.21558        -0.74546
   H      -11.17196        -7.60429        -0.76886
   H      -10.20251        -7.94119        -2.22695
   H      -11.80151        -7.16746        -2.36852
   H       -4.62582        -5.20486        -3.98532
   H       -2.02424        -5.58850        -7.77550
   H       -3.56509        -5.03731        -8.47655
   H       -3.34388        -6.75951        -8.04831
   H       -5.89845        -5.92778        -8.05543
   H       -8.06036        -5.87927        -6.56938
   H       -8.78028        -7.34968        -5.16230
   H      -11.44061        -6.14344        -4.24389
   H       -9.71365        -8.70064        -6.73374
   H      -13.54366        -7.16032        -5.42897
   H      -13.62153       -10.77520        -8.90284
   H       -9.77540       -12.19989       -10.28140
   H      -10.85787       -13.24351       -11.91002
   H      -11.99427       -14.92618       -13.29240
   H      -14.51710       -12.60722        -9.77524
   H      -16.37179       -13.81852       -10.12826
   H      -16.28336       -15.36654       -11.00174
   H      -16.86514       -14.25083       -12.84618
*
