# ORCA input file
# SCF done       -185.662431494003          0.000569144571
! CAM-B3LYP def2-SVP def2/J RIJCOSX Grid4 TightSCF
%maxcore 5000
%tddft
    Mode sTDDFT
    Ethresh 5.0
    maxcore 5000
end

%pal
  nprocs 6
  end
* xyz 0 1
   C        3.11410         2.66285        -2.33551
   C        2.62190         1.67408        -1.52447
   C        3.28689         0.45271        -1.28217
   N        3.77531        -0.55716        -1.03909
   C        1.37949         1.69379        -0.85505
   N        0.37823         1.62068        -0.29709
   C        4.34535         2.57727        -3.10980
   C        4.41180         3.70624        -3.97338
   C        5.45053         3.89671        -4.83879
   C        6.49731         2.94939        -4.87470
   C        6.44522         1.82122        -4.00538
   C        5.35344         1.64934        -3.12377
   C        7.49867         0.88516        -4.04528
   C        8.55181         1.05269        -4.90281
   C        8.60106         2.16301        -5.75903
   C        7.59553         3.09127        -5.74545
   C        3.23518         4.56316        -3.76254
   O        2.97602         5.57533        -4.37899
   C        2.47499         3.93516        -2.64880
   C        1.44606         4.45801        -1.91878
   C        0.70193         5.64942        -2.07530
   S       -0.43175         6.03635        -0.79198
   C       -0.94504         7.47715        -1.59739
   C       -0.26179         7.62411        -2.81624
   C        0.65255         6.60227        -3.07729
   C       -0.49657         8.71056        -3.67797
   N       -0.70136         9.60219        -4.36928
   C       -1.90679         8.37431        -1.08542
   C       -2.55044         8.22162         0.10395
   C       -3.49706         9.13254         0.62558
   C       -4.14562         9.02022         1.84211
   C       -4.99012        10.14502         2.03002
   C       -4.84180        10.97353         0.81763
   C       -3.95569        10.36167        -0.00888
   C       -5.52484        12.15874         0.51862
   N       -6.08075        13.12115         0.22980
   C       -5.78569        10.43935         3.11902
   C       -6.54540        11.61355         3.34074
   C       -7.21805        11.50422         4.54706
   C       -6.88455        10.20863         5.12262
   C       -6.01832         9.57238         4.29302
   C       -5.46873         8.30654         4.52238
   N       -5.03216         7.26700         4.74284
   C       -8.07472        12.46498         5.12937
   C       -8.30646        13.75495         4.67583
   C       -9.27105        14.37232         5.50512
   C       -9.62271        13.38268         6.54313
   C       -8.88973        12.26159         6.31934
   C      -10.47164        13.58450         7.63850
   N      -11.12392        13.71993         8.57381
   C       -9.80771        15.63956         5.37679
   C      -10.94154        16.16626         6.03760
   C      -11.14610        17.47471         5.62597
   C      -10.09381        17.80580         4.67573
   C       -9.30699        16.71134         4.50012
   C       -8.17286        16.66295         3.68149
   N       -7.23753        16.66518         3.01511
   C      -12.23583        18.26528         6.06996
   N      -12.36227        19.63112         6.01554
   C      -11.41217        20.60091         5.52324
   C      -11.66581        20.94055         4.05618
   C      -13.57911        20.07293         6.57008
   O      -13.88718        21.24406         6.64849
   C      -14.25145        18.85917         6.97750
   C      -13.40028        17.77180         6.67083
   C      -14.09506        16.55138         7.02142
   O      -13.81135        15.37945         6.91380
   N      -15.33074        16.99939         7.54882
   C      -16.28128        16.05756         8.08879
   C      -16.19046        15.97703         9.61055
   C      -15.43197        18.36114         7.53012
   C      -16.58299        19.07949         7.99242
   C      -16.66043        20.41307         7.97609
   H        5.47251         4.76084        -5.48611
   H        5.34744         0.78760        -2.47565
   H        7.45584         0.03099        -3.38561
   H        9.35331         0.32973        -4.92632
   H        9.43966         2.27930        -6.42907
   H        7.62759         3.94843        -6.40195
   H        1.14397         3.88928        -1.04659
   H        1.26409         6.55810        -3.96035
   H       -2.11217         9.23362        -1.71021
   H       -2.32994         7.35245         0.71223
   H       -4.01765         8.22202         2.54702
   H       -3.64878        10.71932        -0.97363
   H       -6.58726        12.45093         2.67335
   H       -7.25411         9.83155         6.05789
   H       -7.85521        14.21033         3.81649
   H       -8.90782        11.36700         6.91324
   H      -11.55873        15.62171         6.72378
   H       -9.97124        18.73618         4.15695
   H      -10.39968        20.22647         5.68521
   H      -11.55314        21.50422         6.12480
   H      -11.64912        20.04814         3.43395
   H      -10.90805        21.63329         3.70042
   H      -12.64109        21.40983         3.95406
   H      -16.02253        15.08716         7.65586
   H      -17.29078        16.32927         7.76893
   H      -15.19367        15.65817         9.90476
   H      -16.90994        15.25354         9.98333
   H      -16.39534        16.94353        10.06620
   H      -17.41009        18.48930         8.36186
   H      -15.84998        21.02286         7.61246
   H      -17.54216        20.92253         8.32455
*
