# ORCA input file
# SCF done       -176.227791235194          0.000569120998
! CAM-B3LYP def2-SVP def2/J RIJCOSX Grid4 TightSCF
%maxcore 5000
%tddft
    Mode sTDDFT
    Ethresh 5.0
    maxcore 5000
end

%pal
  nprocs 6
  end
* xyz 0 1
   C        2.02018         2.42519         1.08690
   C        0.92039         1.72553         0.66870
   C        0.27839         0.72865         1.43131
   N       -0.28709        -0.07777         2.01953
   C        0.38831         1.87840        -0.62544
   N        0.00883         1.95336        -1.70724
   C        2.82257         2.14438         2.26606
   C        4.10249         2.75482         2.10346
   C        5.08296         2.61702         3.04405
   C        4.81943         1.86287         4.20968
   C        3.53638         1.26593         4.38391
   C        2.54228         1.41653         3.39138
   C        3.28534         0.52268         5.55524
   C        4.25461         0.37135         6.50897
   C        5.51788         0.95678         6.33595
   C        5.79432         1.68617         5.21133
   C        4.13067         3.50185         0.83564
   O        5.05386         4.08489         0.31798
   C        2.72896         3.43273         0.31514
   C        2.31333         4.31298        -0.62146
   C        0.96443         4.67044        -1.00371
   C       -0.04113         4.82934        -0.04465
   F        0.23512         4.54554         1.24743
   C       -1.29237         5.32318        -0.34031
   C       -1.57548         5.68196        -1.65022
   C       -0.61781         5.53378        -2.62920
   C        0.64814         5.01904        -2.33601
   C        1.59408         4.82617        -3.40604
   S        1.57730         5.88362        -4.79237
   C        2.88886         5.06665        -5.59462
   C        3.30912         3.98400        -4.81735
   C        2.56804         3.86069        -3.59881
   N        2.99490         2.74094        -2.95749
   C        3.98407         2.15598        -3.71858
   C        4.62519         0.98182        -3.30249
   N        5.15212         0.02097        -2.96169
   C        4.21056         2.89602        -4.86025
   C        3.28408         5.55449        -6.85553
   C        4.31978         5.08994        -7.60329
   C        4.65038         5.57343        -8.89413
   S        6.10809         5.02739        -9.65518
   C        5.80569         5.98112       -11.07760
   C        6.71474         6.03658       -12.23235
   O        6.49024         6.73234       -13.18473
   O        7.81586         5.26892       -12.16996
   C        4.62778         6.67658       -10.96645
   C        3.96985         6.45211        -9.74622
   O        2.78596         6.98958        -9.34002
   C        1.94687         7.57466       -10.17682
   C        0.77238         8.09473        -9.72497
   C       -0.26855         8.73608       -10.50672
   C       -0.24624         9.01134       -11.84836
   C       -1.29727         9.64205       -12.54659
   N       -2.11482        10.14769       -13.17387
   C        0.82627         8.71067       -12.71259
   N        1.67295         8.48976       -13.45603
   C       -1.36274         9.05295        -9.59425
   C       -0.99834         8.64605        -8.27903
   C        0.34464         8.04761        -8.30572
   O        0.96597         7.60549        -7.36151
   C       -1.83090         8.81670        -7.21112
   C       -3.09591         9.41205        -7.41254
   C       -3.47080         9.82031        -8.72499
   C       -2.58522         9.63275        -9.81114
   C       -4.73654        10.41111        -8.91593
   C       -5.59148        10.59087        -7.86272
   C       -5.22073        10.18907        -6.57089
   C       -3.99939         9.61222        -6.35062
   H        6.04909         3.07781         2.90142
   H        1.57571         0.96328         3.54785
   H        2.31220         0.07154         5.68162
   H        4.05347        -0.20113         7.40192
   H        6.27095         0.82703         7.09860
   H        6.76536         2.13864         5.07364
   H        3.09921         4.89452        -1.09610
   H       -2.01803         5.43177         0.44936
   H       -2.55014         6.07158        -1.89829
   H       -0.84115         5.79938        -3.65116
   H        2.58654         2.33980        -2.13086
   H        4.92966         2.65879        -5.61754
   H        2.68266         6.37012        -7.22666
   H        4.96331         4.31266        -7.21749
   H        7.88070         4.75581       -11.35335
   H        4.29287         7.32572       -11.75604
   H        2.20982         7.60897       -11.22729
   H       -1.52648         8.50064        -6.22418
   H       -2.90060         9.95250       -10.79136
   H       -5.01757        10.71933        -9.91214
   H       -6.55872        11.04412        -8.01938
   H       -5.90764        10.33894        -5.75142
   H       -3.70784         9.30128        -5.35795
*
