# ORCA input file
# SCF done       -215.237198332398          0.000644415888
! CAM-B3LYP def2-SVP def2/J RIJCOSX Grid4 TightSCF
%maxcore 5000
%tddft
    Mode sTDDFT
    Ethresh 5.0
    maxcore 5000
end

%pal
  nprocs 6
  end
* xyz 0 1
   C       -5.25921        -1.26539        -0.98560
   C       -4.35145        -1.70985        -0.06594
   F       -3.58533        -0.83536         0.59759
   C       -4.20554        -3.08767         0.19382
   F       -3.30297        -3.49022         1.09533
   C       -4.96701        -4.00414        -0.47510
   C       -5.91102        -3.57674        -1.42813
   C       -6.06619        -2.18348        -1.68616
   C       -7.03373        -1.73096        -2.61204
   C       -7.84259        -2.64181        -3.23942
   C       -7.67998        -4.03056        -2.97564
   C       -6.73164        -4.49971        -2.11262
   C       -8.73575        -4.78297        -3.67256
   O       -8.79724        -5.98019        -3.84660
   C       -9.66059        -3.74512        -4.21179
   C       -8.99583        -2.46226        -4.11917
   C       -9.41225        -1.27720        -4.66452
   C      -10.58856        -1.11162        -5.42664
   N      -11.54893        -0.89496        -6.01590
   C       -8.70477        -0.06365        -4.53232
   N       -8.16842         0.94816        -4.45845
   C      -10.92265        -4.02934        -4.66326
   C      -11.64360        -5.15828        -4.22556
   C      -12.56492        -5.94701        -4.90847
   N      -12.97016        -5.77242        -6.24557
   O      -13.85280        -6.49675        -6.66501
   O      -12.42754        -4.89375        -6.89393
   C      -12.97696        -7.02344        -4.07115
   C      -12.29640        -6.93955        -2.88435
   C      -11.47656        -5.78181        -2.90106
   C      -10.73323        -5.19437        -1.87556
   C      -10.69290        -3.79447        -1.60865
   C       -9.85254        -3.55647        -0.55883
   C       -9.28183        -4.79428        -0.14507
   N       -8.23300        -4.85735         0.77302
   O       -7.76957        -5.94963         1.08413
   O       -7.79531        -3.79862         1.20213
   C       -9.83062        -5.84072        -0.91417
   C       -9.42184        -7.18129        -0.86331
   C       -9.66219        -8.12874        -1.82569
   C       -9.34028        -9.49411        -1.82194
   N       -8.67335       -10.27460        -0.90663
   C       -8.10436        -9.88918         0.36559
   C       -9.17105        -9.77227         1.45111
   C       -8.60291       -11.62016        -1.31610
   O       -8.05016       -12.48663        -0.67223
   C       -9.29698       -11.65558        -2.59091
   C       -9.72486       -10.35095        -2.87019
   C      -10.46795       -10.36444        -4.11419
   O      -11.06340        -9.50310        -4.71853
   N      -10.41188       -11.71670        -4.52504
   C      -11.00559       -12.13675        -5.77259
   C       -9.95607       -12.31731        -6.86594
   C       -9.73160       -12.49888        -3.63131
   C       -9.58214       -13.89765        -3.77486
   C       -8.89524       -14.65075        -2.87495
   C       -8.73302       -16.07117        -2.89935
   C       -9.31892       -16.98180        -3.77633
   F      -10.14190       -16.55407        -4.74971
   C       -9.12303       -18.37125        -3.70138
   F       -9.81779       -19.11933        -4.57252
   C       -8.32047       -18.97943        -2.75003
   C       -7.72579       -18.09313        -1.82999
   C       -7.92089       -16.68215        -1.91072
   N       -7.21840       -16.12875        -0.91638
   N       -6.66256       -17.13659        -0.30835
   N       -6.91217       -18.32300        -0.78771
   C       -5.82155       -16.94025         0.83101
   C       -8.11385       -20.41960        -2.67064
   C       -8.15390       -21.08817        -1.46077
   N       -8.01197       -22.40781        -1.32508
   C       -7.82765       -23.14706        -2.38300
   C       -7.74065       -22.60407        -3.68446
   C       -7.85869       -21.19484        -3.83197
   N       -7.66967       -20.61770        -5.03582
   C       -7.46441       -21.40466        -6.05237
   C       -7.42882       -22.81292        -5.91721
   N       -7.53569       -23.39438        -4.75693
   H       -5.36105        -0.20676        -1.16669
   H       -4.85322        -5.05444        -0.25661
   H       -7.13010        -0.67026        -2.77991
   H       -6.63262        -5.55913        -1.92740
   H      -11.42337        -3.36575        -5.35992
   H      -13.68862        -7.77134        -4.36294
   H      -12.43379        -7.57272        -2.02840
   H      -11.31248        -3.06982        -2.10245
   H       -9.62929        -2.61168        -0.10089
   H       -8.82131        -7.42332         0.00118
   H      -10.13375        -7.81637        -2.74718
   H       -7.54404        -8.95899         0.25647
   H       -7.40416       -10.68629         0.63237
   H       -9.95049        -9.07036         1.16413
   H       -8.71418        -9.42455         2.37283
   H       -9.62796       -10.74266         1.63015
   H      -11.69919       -11.34114        -6.05834
   H      -11.57081       -13.05984        -5.61941
   H       -9.42504       -11.38303        -7.03040
   H      -10.44209       -12.60729        -7.79294
   H       -9.23477       -13.08476        -6.59432
   H      -10.05128       -14.35180        -4.63316
   H       -8.40858       -14.16842        -2.03606
   H       -5.81222       -15.87639         1.05592
   H       -4.81215       -17.28945         0.61210
   H       -6.20950       -17.50531         1.67839
   H       -8.32378       -20.54475        -0.54239
   H       -7.73515       -24.21430        -2.23886
   H       -7.30576       -20.92914        -7.01054
   H       -7.28483       -23.45496        -6.77518
*
