# ORCA input file
# SCF done       -194.380327807905          0.000994489706
! CAM-B3LYP def2-SVP def2/J RIJCOSX Grid4 TightSCF
%maxcore 5000
%tddft
    Mode sTDDFT
    Ethresh 5.0
    maxcore 5000
end

%pal
  nprocs 6
  end
* xyz 0 1
   C       -6.88286         1.83681         5.86150
   C       -5.94043         2.21545         6.77505
   F       -6.09841         3.34683         7.47723
   C       -4.79341         1.42594         6.99175
   F       -3.88518         1.82337         7.89477
   C       -4.60437         0.26864         6.29039
   C       -5.55702        -0.14892         5.34056
   C       -6.71836         0.64793         5.12146
   C       -7.69026         0.24668         4.17793
   C       -7.50744        -0.91791         3.47836
   C       -6.34375        -1.70658         3.70352
   C       -5.38533        -1.34088         4.60237
   C       -6.38872        -2.89658         2.83194
   O       -5.47877        -3.63732         2.54340
   C       -7.76104        -2.88348         2.23701
   C       -8.34570        -1.58006         2.48374
   C       -9.46454        -1.05902         1.89094
   C      -10.20050        -1.71577         0.88260
   N      -10.82239        -2.20183         0.04871
   C       -9.98870         0.21878         2.17619
   N      -10.45701         1.24924         2.36733
   C       -8.33489        -3.97045         1.66970
   C       -7.77696        -5.28573         1.71473
   C       -7.21524        -5.96258         2.79603
   N       -7.06040        -5.54205         4.12217
   O       -7.40526        -4.40867         4.44419
   O       -6.60961        -6.34891         4.91786
   C       -6.91259        -7.30841         2.39725
   C       -7.31152        -7.48115         1.11022
   C       -7.87419        -6.25109         0.63011
   C       -8.31378        -5.96195        -0.65596
   C       -8.31642        -4.69165        -1.27330
   C       -8.59988        -4.85042        -2.60475
   C       -8.83864        -6.22411        -2.88929
   N       -9.05347        -6.63021        -4.19765
   O       -9.00233        -7.82946        -4.49199
   O       -9.24961        -5.76870        -5.04420
   C       -8.74915        -6.95160        -1.67309
   C       -9.18016        -8.21258        -1.27656
   C       -9.65839        -9.23426        -2.08040
   C      -10.02704       -10.49065        -1.60455
   C      -10.30119       -10.85353        -0.27818
   C      -10.73040       -12.18351        -0.22040
   O      -11.03958       -12.70394         0.97382
   C      -11.65376       -13.96607         1.09975
   C      -10.69102       -12.73531        -1.53250
   C      -10.33200       -11.66202        -2.42774
   C      -10.39252       -11.70536        -3.80783
   C       -9.74016       -10.88597        -4.75864
   C      -10.21670       -11.21460        -6.00768
   O       -9.92554       -10.71919        -7.19100
   C       -9.00439        -9.64080        -7.25082
   C      -11.22417       -12.27578        -5.86683
   C      -11.30901       -12.59265        -4.56954
   C      -10.70356       -14.10721        -1.90158
   C      -10.02202       -14.60607        -2.96655
   C       -9.96577       -15.98114        -3.36287
   C      -10.72130       -17.01422        -2.77881
   N      -10.61837       -18.27603        -3.10570
   C       -9.75539       -18.65012        -4.06159
   C       -8.98825       -17.69379        -4.74777
   C       -9.09502       -16.37090        -4.39574
   C       -9.68923       -20.07237        -4.29130
   C       -8.85361       -20.69645        -5.14128
   C       -8.75012       -22.12091        -5.34403
   C       -9.51971       -23.07418        -4.65780
   N       -9.41313       -24.36874        -4.82782
   C       -8.52510       -24.84552        -5.70494
   C       -7.70871       -23.98600        -6.45007
   C       -7.82334       -22.62613        -6.26628
   C       -8.42762       -26.28821        -5.86238
   C       -9.16605       -27.14915        -5.17039
   H       -7.75529         2.45261         5.70829
   H       -3.72196        -0.32563         6.46850
   H       -8.56261         0.86534         4.03950
   H       -4.51453        -1.95897         4.75760
   H       -9.29312        -3.88250         1.17214
   H       -6.44350        -8.02486         3.04383
   H       -7.13393        -8.35289         0.51045
   H       -8.02376        -3.77363        -0.80297
   H       -8.62092        -4.08219        -3.35531
   H       -9.12815        -8.40378        -0.21466
   H       -9.70898        -9.06324        -3.14162
   H      -10.24231       -10.21786         0.58422
   H      -11.96622       -14.03252         2.14153
   H      -10.94859       -14.77587         0.88957
   H      -12.53296       -14.05089         0.45567
   H       -8.95378       -10.18925        -4.55767
   H       -9.07676        -9.23417        -8.25705
   H       -7.98821       -10.00038        -7.07067
   H       -9.24310        -8.87322        -6.51109
   H      -11.77976       -12.67600        -6.69229
   H      -11.99430       -13.27963        -4.11407
   H      -11.21357       -14.80366        -1.25497
   H       -9.40383       -13.93485        -3.54831
   H      -11.44594       -16.80527        -2.00204
   H       -8.32079       -17.99071        -5.54062
   H       -8.50777       -15.61874        -4.90449
   H      -10.37886       -20.63644        -3.68052
   H       -8.16729       -20.11104        -5.74125
   H      -10.25952       -22.76983        -3.92973
   H       -6.99864       -24.39059        -7.15578
   H       -7.20024       -21.94390        -6.82907
   H       -7.70263       -26.63180        -6.58868
   H       -9.88267       -26.79303        -4.45061
   H       -9.07583       -28.21344        -5.30226
*
