# ORCA input file
# SCF done       -245.299669189581          0.000838561389
! CAM-B3LYP def2-SVP def2/J RIJCOSX Grid4 TightSCF
%maxcore 5000
%tddft
    Mode sTDDFT
    Ethresh 5.0
    maxcore 5000
end

%pal
  nprocs 6
  end
* xyz 0 1
   C       -7.87719        -0.27184         1.19794
   N       -6.61490        -0.26895         0.72128
   C       -5.96617        -1.32376        -0.02126
   C       -6.86547        -1.93001        -1.08979
   C       -5.92778         0.90960         1.09957
   O       -4.77809         1.14529         0.76291
   C       -6.88442         1.64484         1.88151
   C       -8.08461         0.88294         1.91697
   C       -9.03101         1.56914         2.77786
   O      -10.16608         1.32249         3.10564
   N       -8.30942         2.69107         3.24643
   C       -8.93753         3.67661         4.09419
   C       -9.30154         4.93728         3.31405
   C       -7.04121         2.75352         2.72530
   C       -6.11492         3.75154         3.08759
   C       -4.97086         4.00017         2.38584
   C       -3.95765         4.94003         2.69351
   C       -3.05348         5.50989         1.71128
   N       -3.31939         5.70969         0.43958
   O       -2.69397         6.36525        -0.36969
   O       -4.52480         5.14050         0.04149
   C       -1.93653         6.08872         2.39990
   C       -2.14287         5.92130         3.72995
   C       -3.42878         5.30962         3.95281
   C       -3.96103         5.13387         5.25771
   C       -3.23499         4.62730         6.34119
   C       -4.08226         4.47745         7.43133
   C       -5.35496         4.95278         7.07417
   N       -6.45748         4.94439         7.92468
   O       -7.56946         5.17298         7.45034
   O       -6.27389         4.68420         9.10391
   C       -5.30308         5.44001         5.73743
   C       -6.25450         6.32125         5.19899
   C       -6.16502         7.00082         4.01074
   C       -7.09635         7.94930         3.49053
   C       -7.96620         8.70705         4.32880
   O       -7.78669         8.50608         5.64970
   C       -8.80006         8.67667         6.63429
   C       -9.93365         7.67346         6.46131
   C       -8.81210         9.68848         3.78396
   O       -9.57836        10.40987         4.64693
   C      -10.85308        10.91204         4.25780
   C      -11.68565        11.07733         5.52096
   C       -8.76681         9.94705         2.39307
   O       -9.55377        10.94759         1.93206
   C       -9.42970        11.40866         0.59444
   C       -8.15324        12.20643         0.35653
   C       -7.93388         9.19201         1.58271
   C       -7.10425         8.19834         2.08982
   C       -6.36261         7.38769         1.15203
   C       -5.95897         7.86533        -0.05440
   C       -5.38648         7.13298        -1.11940
   C       -4.98983         7.62294        -2.34587
   N       -5.11344         8.93836        -2.83987
   O       -5.67758         9.77921        -2.15472
   O       -4.66174         9.16254        -3.94729
   C       -4.39430         6.57649        -3.14084
   C       -4.40322         5.43196        -2.44832
   C       -5.13854         5.63007        -1.14486
   C       -6.44084         4.85890        -1.23206
   C       -7.69826         5.43284        -1.16262
   C       -8.67216         4.43586        -1.31138
   C       -8.02225         3.22818        -1.51361
   N       -8.69617         2.01915        -1.65616
   O       -8.05336         0.97012        -1.69984
   O       -9.91339         2.04733        -1.73010
   C       -6.59414         3.44959        -1.47319
   C       -5.65847         2.44149        -1.72100
   C       -4.32653         2.45287        -1.37135
   C       -3.32958         1.50167        -1.62058
   N       -3.31501         0.37179        -2.40395
   C       -4.31310        -0.07042        -3.35192
   C       -4.42050         0.87353        -4.54609
   C       -2.08499        -0.31083        -2.31258
   O       -1.84773        -1.33709        -2.91512
   C       -1.28996         0.47617        -1.38905
   C       -2.07382         1.57783        -0.99948
   C       -1.32158         2.37305        -0.06638
   O       -1.57666         3.40042         0.53140
   N       -0.08566         1.69374         0.03719
   C        0.94460         2.16930         0.92727
   C        0.95291         1.40099         2.24673
   C       -0.05772         0.56233        -0.73440
   C        1.07023        -0.31443        -0.82216
   C        1.07178        -1.41939        -1.57458
   H       -8.55181        -1.08466         1.00947
   H       -5.63212        -2.09988         0.67899
   H       -5.07528        -0.87072        -0.46497
   H       -7.61842        -2.57613        -0.64661
   H       -6.26841        -2.52634        -1.77412
   H       -7.36915        -1.14117        -1.64150
   H       -8.28800         3.91824         4.93982
   H       -9.84620         3.20516         4.47797
   H       -8.41706         5.39645         2.87766
   H       -9.77306         5.65348         3.98006
   H       -9.99566         4.69202         2.51372
   H       -6.37465         4.36264         3.93457
   H       -4.81057         3.41994         1.48736
   H       -1.12418         6.58757         1.90913
   H       -1.50642         6.25785         4.52631
   H       -2.20986         4.31124         6.29754
   H       -3.83672         4.05237         8.38609
   H       -7.12392         6.47542         5.81871
   H       -5.31821         6.79594         3.37354
   H       -9.17428         9.70147         6.64149
   H       -8.27217         8.47965         7.57104
   H      -10.67616         7.82971         7.23854
   H       -9.55093         6.65880         6.54909
   H      -10.40886         7.79585         5.48960
   H      -11.33898        10.21456         3.56781
   H      -10.73479        11.87815         3.75706
   H      -11.84168        10.11724         6.00546
   H      -12.65029        11.50615         5.26546
   H      -11.17746        11.74039         6.21582
   H      -10.30244        12.05434         0.46509
   H       -9.51231        10.57531        -0.11211
   H       -8.10400        13.04288         1.04922
   H       -8.15221        12.58845        -0.65989
   H       -7.26844        11.59088         0.49415
   H       -7.95121         9.35325         0.51898
   H       -6.18209         6.35339         1.40985
   H       -6.07561         8.91995        -0.26070
   H       -3.99815         6.74611        -4.12376
   H       -4.02765         4.47894        -2.76078
   H       -7.91296         6.47368        -1.01931
   H       -9.73588         4.56686        -1.26397
   H       -6.07329         1.54253        -2.15270
   H       -3.96111         3.26204        -0.76145
   H       -5.28031        -0.18500        -2.85904
   H       -3.97816        -1.05543        -3.69099
   H       -5.14891         0.48511        -5.25204
   H       -3.45924         0.95496        -5.04831
   H       -4.73665         1.86673        -4.23475
   H        0.71363         3.22124         1.11896
   H        1.91758         2.10658         0.43237
   H       -0.01108         1.50273         2.73921
   H        1.72292         1.80119         2.90049
   H        1.14734         0.34361         2.08156
   H        1.94638        -0.04447        -0.24891
   H        0.21082        -1.70958        -2.15365
   H        1.93732        -2.05694        -1.62454
*
