# ORCA input file
# SCF done       -215.657324519916          0.000643716466
! CAM-B3LYP def2-SVP def2/J RIJCOSX Grid4 TightSCF
%maxcore 5000
%tddft
    Mode sTDDFT
    Ethresh 5.0
    maxcore 5000
end

%pal
  nprocs 6
  end
* xyz 0 1
   C        4.60334        -3.68262         0.26322
   O        4.41957        -4.99375         0.04892
   C        3.42785        -3.10932         0.64964
   C        2.76040        -1.85611         1.04934
   O        3.18104        -0.73934         1.16817
   N        1.44282        -2.24840         1.27718
   C        1.16936        -3.60056         1.07664
   O        0.09598        -4.12433         1.21625
   C        2.46449        -4.15485         0.67321
   C        3.11852        -5.31087         0.29623
   C        2.62157        -6.63266         0.15041
   C        3.39801        -7.68747        -0.20581
   C        2.93969        -9.01984        -0.35589
   C        3.69118       -10.17765        -0.19451
   N        5.07675       -10.29516         0.02765
   O        5.75409        -9.28152         0.06747
   O        5.52472       -11.42056         0.15382
   C        2.82393       -11.32140        -0.23946
   C        1.54465       -10.89202        -0.39340
   C        1.54569        -9.46357        -0.53107
   C        0.47875        -8.69942        -0.97216
   C        0.55918        -7.58602        -1.86425
   C       -0.68822        -7.31447        -2.35108
   C       -1.62777        -8.18641        -1.72961
   N       -3.00958        -8.12141        -1.97770
   O       -3.39126        -7.31966        -2.81017
   O       -3.75191        -8.87494        -1.36323
   C       -0.95102        -9.03501        -0.83972
   C       -1.54151        -9.88573         0.10425
   C       -0.89529       -10.34640         1.22666
   C       -1.33185       -11.24429         2.20662
   N       -2.51505       -11.91896         2.37839
   C       -3.70790       -11.86820         1.56120
   C       -3.57538       -12.73373         0.31157
   C       -2.47123       -12.76912         3.49867
   O       -3.40452       -13.45693         3.85657
   C       -1.13545       -12.59477         4.04842
   C       -0.48084       -11.65641         3.25467
   C        0.86957       -11.47284         3.76036
   O        1.78172       -10.77666         3.37534
   N        0.93531       -12.34096         4.86337
   C        2.12239       -12.42333         5.68499
   C        1.96290       -11.64978         6.99006
   C       -0.23752       -13.02650         5.05772
   C       -0.41818       -13.99194         6.05392
   C       -1.59910       -14.68785         6.18116
   C       -1.92308       -15.69151         7.10568
   C       -1.39426       -16.06953         8.35466
   N       -0.21761       -15.68523         9.02460
   O        0.68312       -15.13948         8.40333
   O       -0.14948       -15.94240        10.21245
   C       -2.30660       -16.96066         8.99443
   C       -3.39228       -17.15574         8.19046
   C       -3.19996       -16.42798         6.98128
   C       -3.97370       -16.51721         5.83644
   C       -3.51394       -16.41899         4.49091
   C       -4.52822       -16.78350         3.65981
   C       -5.69840       -17.08286         4.43640
   N       -6.89390       -17.43353         3.78187
   O       -6.94554       -17.22568         2.58253
   O       -7.80380       -17.94155         4.41769
   C       -5.40411       -16.90917         5.78963
   C       -6.19318       -16.82831         6.95844
   C       -7.47088       -17.26334         7.16035
   C       -8.10418       -17.09979         8.41443
   O       -9.37568       -17.55032         8.58725
   C       -7.67825       -16.55163         9.61779
   C       -6.55757       -15.90287        10.30752
   O       -5.45864       -15.60068         9.91276
   N       -7.03536       -15.69388        11.59405
   C       -8.34136       -16.13075        11.82681
   O       -8.92685       -16.03854        12.87086
   C       -8.74906       -16.68974        10.53151
   C       -9.78114       -17.31071         9.85540
   C      -11.08985       -17.68799        10.30514
   C      -11.99120       -18.28781         9.52760
   H        5.58963        -3.29064         0.11023
   H        0.73111        -1.59210         1.56727
   H        1.57154        -6.74535         0.37846
   H        4.46529        -7.53553        -0.30975
   H        3.17324       -12.33316        -0.16101
   H        0.67895       -11.51180        -0.52258
   H        1.47577        -7.13453        -2.18969
   H       -0.95509        -6.57460        -3.08182
   H       -2.58517       -10.10628        -0.06464
   H        0.10695        -9.98520         1.42187
   H       -3.93452       -10.83145         1.30589
   H       -4.51709       -12.25768         2.18546
   H       -2.71394       -12.43998        -0.28368
   H       -4.46856       -12.62915        -0.29679
   H       -3.46491       -13.77858         0.59154
   H        2.93000       -11.98721         5.09113
   H        2.35460       -13.47133         5.88792
   H        1.72828       -10.60805         6.78440
   H        2.89150       -11.69309         7.55099
   H        1.17166       -12.07594         7.60125
   H        0.40889       -14.20874         6.71140
   H       -2.39253       -14.44276         5.48674
   H       -2.12474       -17.39809         9.95797
   H       -4.19528       -17.84009         8.37989
   H       -2.50275       -16.21932         4.19663
   H       -4.50121       -16.86032         2.58918
   H       -5.70120       -16.34938         7.79540
   H       -8.03825       -17.76160         6.38861
   H       -6.47731       -15.25454        12.31279
   H      -11.29263       -17.44525        11.33829
   H      -11.77488       -18.52247         8.49884
   H      -12.96351       -18.55617         9.90009
*
