# ORCA input file
# SCF done       -181.681272730291          0.000575971035
! CAM-B3LYP def2-SVP def2/J RIJCOSX Grid4 TightSCF
%maxcore 5000
%tddft
    Mode sTDDFT
    Ethresh 5.0
    maxcore 5000
end

%pal
  nprocs 6
  end
* xyz 0 1
   C       -0.89214         1.43287         4.62534
   C       -1.27055         2.43593         3.74359
   C       -0.72239         2.51385         2.46904
   C        0.21186         1.56414         2.10235
   C        0.59405         0.55159         2.99352
   C        0.04666         0.47612         4.26069
   C        1.60269        -0.32207         2.35439
   O        2.14038        -1.29642         2.85169
   C        1.81873         0.22188         1.01421
   C        0.95144         1.40761         0.82612
   O        0.87200         2.09800        -0.16439
   C        2.66269        -0.21522         0.03840
   C        3.55834        -1.30169         0.04242
   C        4.37948        -1.61521        -1.04226
   C        5.18123        -2.71672        -0.79770
   C        4.96418        -3.25708         0.49177
   S        3.78747        -2.41222         1.39044
   C        5.82670        -4.36564         0.64988
   C        6.59073        -4.53105        -0.52505
   C        6.18522        -3.51403        -1.48476
   C        6.61198        -3.37170        -2.77113
   C        7.50485        -4.27465        -3.38985
   N        8.18955        -5.01685        -3.93125
   C        6.14044        -2.33038        -3.59957
   N        5.76321        -1.48333        -4.27373
   C        7.50158        -5.57669        -0.44390
   C        7.42417        -6.22662         0.78334
   S        6.20787        -5.52384         1.84329
   C        8.20179        -7.32232         1.20137
   C        9.30513        -7.87945         0.53791
   C        9.86736        -9.00826         1.22976
   N       10.86633        -9.71338         0.69377
   C       11.35445        -9.28834        -0.44946
   C       12.39583       -10.12876        -1.09787
   O       12.68867       -11.23116        -0.69186
   C       13.01187        -9.53358        -2.29784
   C       12.63188        -8.36559        -2.82555
   C       11.56427        -7.51963        -2.26103
   O       11.28596        -6.43166        -2.71354
   C       10.88447        -8.08653        -1.06635
   N        9.85780        -7.42071        -0.58739
   C        9.22161        -9.28676         2.44323
   S        7.90604        -8.17997         2.68070
   C        9.55761       -10.29262         3.36806
   C       10.69854       -11.08780         3.34144
   C       10.73505       -11.96641         4.41624
   C        9.60582       -11.86274         5.25477
   S        8.51568       -10.65364         4.73792
   C        9.72121       -12.81480         6.29023
   C       10.93162       -13.52582         6.11928
   C       11.61614       -12.99843         4.94938
   C       12.84540       -13.34328         4.47510
   C       13.63341       -14.37328         5.03641
   N       14.29914       -15.20767         5.45276
   C       13.46326       -12.65757         3.40426
   N       14.00718       -12.08357         2.57493
   C       11.14361       -14.48032         7.10707
   C       10.10725       -14.51734         8.02990
   S        8.84877       -13.33387         7.65379
   C        9.90130       -15.31180         9.17863
   C       10.68082       -16.26187         9.76117
   C       10.19398       -16.93689        10.99174
   O        9.13533       -16.73978        11.54583
   C       11.26122       -17.88053        11.38825
   C       11.31803       -18.74955        12.46224
   C       12.45492       -19.53343        12.60982
   C       13.50567       -19.44821        11.70583
   C       13.45142       -18.57707        10.62583
   C       12.32045       -17.79573        10.47615
   C       12.01451       -16.79729         9.42354
   O       12.73515       -16.50368         8.49361
   H       -1.33450         1.39668         5.60982
   H       -2.00241         3.16682         4.05402
   H       -1.01103         3.29044         1.77760
   H        0.34711        -0.30686         4.94001
   H        2.64814         0.36317        -0.88141
   H        4.37167        -1.04217        -1.95228
   H        8.20484        -5.87328        -1.20146
   H       13.80246       -10.12223        -2.74342
   H       13.10655        -7.96756        -3.71228
   H       11.43107       -11.00267         2.55903
   H       11.99806       -15.13118         7.18137
   H        8.96111       -15.13209         9.69595
   H       10.49711       -18.80895        13.16018
   H       12.52423       -20.22012        13.44044
   H       14.37777       -20.06952        11.84621
   H       14.26201       -18.50264         9.91736
*
