# ORCA input file
# SCF done       -194.622388341564          0.000474882005
! CAM-B3LYP def2-SVP def2/J RIJCOSX Grid4 TightSCF
%maxcore 5000
%tddft
    Mode sTDDFT
    Ethresh 5.0
    maxcore 5000
end

%pal
  nprocs 6
  end
* xyz 0 1
   C       -5.08363        -2.46378         2.01927
   C       -5.72230        -3.45057         1.31115
   C       -5.48223        -4.82870         1.48388
   N       -5.32821        -5.96270         1.57820
   C       -6.72121        -3.23024         0.34037
   N       -7.55500        -3.13504        -0.44360
   C       -4.11543        -2.67862         3.08971
   C       -3.76980        -1.42316         3.64517
   C       -2.87371        -1.29207         4.67713
   C       -2.29309        -2.45685         5.19069
   C       -2.64188        -3.70649         4.62713
   C       -3.54638        -3.83884         3.58040
   S       -1.79995        -5.01449         5.40266
   C       -1.00447        -3.87964         6.46047
   C       -1.34900        -2.58791         6.24588
  Br        0.20770        -4.50595         7.74769
   C       -4.48765        -0.35015         2.92443
   O       -4.33444         0.84237         3.08786
   C       -5.30523        -1.03945         1.90192
   C       -5.98944        -0.40447         0.89765
   C       -6.32327         0.95886         0.87684
   C       -6.62646         1.80855         1.93592
   O       -6.83166         1.38320         3.19937
   C       -7.41758         2.36238         4.03541
   C       -6.80948         3.74214         3.76600
   C       -7.37183         4.82229         4.67309
   O       -7.09787         4.11908         2.42386
   C       -6.82078         3.14515         1.53382
   C       -6.71440         3.33396         0.15562
   S       -6.47401         1.81195        -0.65162
   C       -6.75765         4.53091        -0.61184
   C       -6.93029         4.43357        -2.01628
   C       -6.99059         5.57592        -2.87216
   N       -7.21022         5.40971        -4.18827
   C       -7.32638         4.20569        -4.67253
   C       -7.23176         3.07465        -3.83326
   N       -7.04958         3.20712        -2.55023
   C       -6.78270         6.88799        -2.38449
   C       -6.64387         7.00409        -0.98726
   C       -6.61738         5.84435        -0.11101
   N       -6.43675         6.20642         1.15845
   S       -6.36512         7.80104         1.25251
   N       -6.53665         8.14158        -0.30161
   C       -6.68546         7.97190        -3.29870
   C       -6.07498         9.21245        -3.14023
   O       -5.35110         9.58716        -2.05759
   C       -4.51602        10.69629        -2.33100
   C       -5.28326        11.79914        -3.07134
   C       -6.45913        12.30973        -2.24220
   O       -5.72383        11.29993        -4.33105
   C       -6.20574        10.04057        -4.27056
   C       -6.85886         9.42974        -5.33821
   S       -7.33050         7.80264        -4.89935
   C       -7.16086        10.05732        -6.55932
   C       -7.63111         9.49786        -7.71269
   C       -7.70617         8.11824        -8.13604
   C       -6.79700         7.13498        -7.83737
   C       -6.93252         5.79046        -8.22338
   N       -7.02883         4.67045        -8.46120
   C       -5.58935         7.39608        -7.15597
   N       -4.56060         7.59034        -6.68472
   C       -8.74526         8.03450        -9.15555
   C       -9.11618         9.35203        -9.52757
   C       -8.37598        10.32462        -8.69239
   O       -8.41540        11.53260        -8.75597
   C      -10.03970         9.60469       -10.51189
   C      -10.63310         8.50868       -11.14823
   C      -10.26332         7.19876       -10.76098
   C       -9.31955         6.94121        -9.77391
   S      -11.12807         5.99617       -11.67000
   C      -11.95973         7.25219       -12.54848
   C      -11.61064         8.50754       -12.18115
  Br      -13.21227         6.78703       -13.86475
   H       -2.62717        -0.32114         5.07751
   H       -3.77334        -4.81272         3.18002
   H       -0.95322        -1.76046         6.80601
   H       -6.24748        -0.96053         0.00492
   H       -7.22948         2.03785         5.05962
   H       -8.50081         2.40286         3.85397
   H       -5.71813         3.66214         3.88103
   H       -8.45339         4.86567         4.57537
   H       -6.95874         5.78249         4.37896
   H       -7.11185         4.61756         5.70709
   H       -7.49605         4.11608        -5.73620
   H       -7.31411         2.06820        -4.21617
   H       -3.66434        10.37540        -2.94650
   H       -4.15806        11.04908        -1.36363
   H       -4.60498        12.62125        -3.32044
   H       -7.07753        11.47964        -1.90680
   H       -7.06630        12.98254        -2.84237
   H       -6.08978        12.84522        -1.37241
   H       -7.09668        11.14118        -6.54907
   H      -10.29744        10.61589       -10.78510
   H       -9.06679         5.92806        -9.50724
   H      -12.02458         9.39777       -12.61834
*
