# ORCA input file
# SCF done       -152.408090039720          0.000193625649
! CAM-B3LYP def2-SVP def2/J RIJCOSX Grid4 TightSCF
%maxcore 5000
%tddft
    Mode sTDDFT
    Ethresh 5.0
    maxcore 5000
end

%pal
  nprocs 6
  end
* xyz 0 1
   C        0.65662        -0.00069         4.44559
   N       -0.09936        -0.83067         5.16341
   C       -0.49323        -1.92158         4.55374
   C       -0.11662        -2.17423         3.21621
   N        0.64215        -1.27150         2.58099
   N        1.01815        -0.20027         3.19481
   C       -0.49994        -3.34977         2.49381
   C       -0.16347        -3.65395         1.18959
   C       -0.68977        -4.88210         0.79256
   C       -1.43408        -5.51157         1.81155
   S       -1.48488        -4.59494         3.24659
   C       -1.91906        -6.75099         1.33169
   C       -1.47818        -6.90763         0.00164
   C       -0.69763        -5.73970        -0.38057
   C       -0.10270        -5.50732        -1.58533
   C       -0.18462        -6.42749        -2.65257
   N       -0.24538        -7.16891        -3.52502
   C        0.63455        -4.33341        -1.85130
   N        1.23578        -3.38442        -2.07899
   C       -1.88977        -8.10650        -0.56276
   C       -2.64267        -8.86678         0.32531
   S       -2.84854        -8.07902         1.88058
   C       -3.20180       -10.14836         0.08644
   C       -3.95519       -10.80901         1.08200
   C       -4.51410       -12.12074         0.88294
   N       -5.21751       -12.69453         1.86461
   C       -5.39591       -12.06170         3.00058
   C       -4.83929       -10.75814         3.19909
   N       -4.14480       -10.18030         2.24711
   C       -5.03190       -10.07341         4.42404
   N       -5.20268        -9.54025         5.42320
   C       -6.14720       -12.68390         4.02761
   N       -6.75055       -13.16203         4.87565
   C       -4.34412       -12.83996        -0.32158
   C       -3.60362       -12.17532        -1.32808
   C       -3.04512       -10.85608        -1.12880
   N       -2.38879       -10.43667        -2.21077
   S       -2.46041       -11.56048        -3.35175
   N       -3.32325       -12.64336        -2.54453
   C       -4.88331       -14.14231        -0.47671
   C       -4.77605       -14.96063        -1.59628
   C       -5.40871       -16.18062        -1.40801
   C       -6.00618       -16.29661        -0.13570
   S       -5.78564       -14.89939         0.82600
   C       -6.61545       -17.57154        -0.04680
   C       -6.40368       -18.26232        -1.26065
   C       -5.63865       -17.40960        -2.15366
   C       -5.21742       -17.69247        -3.41958
   C       -5.49431       -18.92333        -4.05229
   N       -5.71157       -19.91864        -4.57776
   C       -4.47158       -16.77141        -4.18605
   N       -3.86458       -16.03056        -4.81647
   C       -6.96990       -19.53548        -1.25901
   C       -7.60080       -19.80261        -0.06012
   S       -7.50476       -18.48367         1.08485
   C       -8.29035       -20.99679         0.32036
   N       -8.83107       -21.03501         1.55030
   C       -9.45684       -22.14203         1.87383
   C       -9.53438       -23.19855         0.96023
   N       -8.97531       -23.08425        -0.23217
   N       -8.35759       -22.00091        -0.55906
   H        0.99804         0.90538         4.92349
   H       -1.11231        -2.61126         5.11402
   H        0.43670        -2.99405         0.59004
   H       -1.67264        -8.44601        -1.55870
   H       -4.25432       -14.64677        -2.48152
   H       -6.94220       -20.24797        -2.06310
   H       -9.89639       -22.18702         2.86133
   H      -10.03604       -24.12913         1.17270
*
