# ORCA input file
# SCF done       -216.723670566165          0.000467004911
! CAM-B3LYP def2-SVP def2/J RIJCOSX Grid4 TightSCF
%maxcore 5000
%tddft
    Mode sTDDFT
    Ethresh 5.0
    maxcore 5000
end

%pal
  nprocs 6
  end
* xyz 0 1
   C        1.08914         1.04276         1.99857
   C        2.42708         1.00609         2.27372
   F        3.08221         2.13274         2.58478
   C        3.13438        -0.21235         2.23507
   F        4.44627        -0.21868         2.50974
   C        2.49330        -1.37777         1.92146
   C        1.11476        -1.37286         1.63290
   C        0.39795        -0.14193         1.67257
   C       -0.98661        -0.11312         1.39029
   C       -1.63722        -1.28054         1.08459
   C       -0.91325        -2.50385         1.04839
   C        0.42569        -2.56171         1.30621
   C       -1.82980        -3.60953         0.70235
   O       -1.51229        -4.75141         0.45793
   C       -3.17997        -2.99342         0.60925
   C       -3.03650        -1.55566         0.76846
   C       -4.02297        -0.60980         0.67098
   C       -5.37584        -0.85814         0.35657
   N       -6.49040        -0.96665         0.10106
   C       -3.81344         0.77397         0.85258
   N       -3.71129         1.90959         0.98609
   C       -4.32727        -3.66268         0.32078
   C       -4.51687        -5.08679         0.31212
   C       -3.92082        -5.94587         1.26370
   O       -3.27955        -5.37088         2.30043
   C       -2.72529        -6.19611         3.29974
   C       -4.09193        -7.31588         1.11732
   C       -4.87616        -7.85378         0.10617
   C       -5.58588        -6.99249        -0.75981
   C       -5.38822        -5.63021        -0.64093
   O       -6.46152        -7.57325        -1.61753
   C       -7.16931        -6.75194        -2.51565
   C       -4.97891        -9.30298        -0.03923
   C       -5.20057       -10.14756         1.05750
   C       -5.28057       -11.58005         0.91776
   N       -5.51401       -12.34229         2.01651
   C       -5.65824       -11.77097         3.16039
   C       -5.57800       -10.35383         3.29868
   N       -5.36282        -9.59003         2.28535
   F       -5.72629        -9.77600         4.49081
   F       -5.91200       -12.54269         4.21535
   C       -5.09479       -12.21585        -0.31824
   C       -4.91030       -11.37236        -1.42348
   C       -4.84246        -9.93309        -1.28503
   N       -4.61329        -9.33692        -2.46106
   S       -4.55293       -10.45175        -3.60176
   N       -4.78532       -11.74986        -2.70161
   C       -5.04158       -13.67080        -0.43119
   C       -3.99302       -14.28902        -1.14875
   O       -3.03886       -13.47716        -1.66345
   C       -1.96464       -14.05631        -2.36572
   C       -3.97649       -15.66758        -1.23562
   C       -4.90079       -16.47108        -0.55529
   C       -5.92857       -15.84283         0.18354
   C       -5.99105       -14.45745         0.20425
   O       -6.82740       -16.64552         0.80408
   C       -7.86730       -16.05533         1.55277
   C       -4.77214       -17.89322        -0.70005
   C       -5.10842       -18.92413         0.11666
   C       -5.17408       -20.29718        -0.46065
   O       -4.76526       -20.64773        -1.54354
   C       -5.88150       -21.11248         0.54758
   C       -6.28981       -22.41240         0.46743
   C       -6.97699       -22.98547         1.56110
   C       -7.23306       -22.19322         2.71772
   C       -7.92432       -22.76891         3.80279
   C       -8.33792       -24.07000         3.74412
   C       -8.08198       -24.85307         2.60084
   C       -7.41611       -24.32340         1.53134
   F       -8.49948       -26.12646         2.57073
   F       -8.99371       -24.61540         4.77753
   C       -6.79135       -20.85153         2.77441
   C       -6.11854       -20.31976         1.70668
   C       -5.51856       -19.00463         1.50108
   C       -5.21896       -18.10576         2.48957
   C       -4.38634       -16.98538         2.29617
   N       -3.67766       -16.08865         2.19342
   C       -5.64081       -18.23969         3.82764
   N       -5.98794       -18.28981         4.92070
   H        0.56285         1.98388         2.03290
   H        3.04881        -2.30217         1.89579
   H       -1.49750         0.83522         1.42626
   H        0.95069        -3.50408         1.26695
   H       -5.19869        -3.08678         0.03464
   H       -2.31814        -5.51604         4.04649
   H       -1.91880        -6.81531         2.89730
   H       -3.48709        -6.83144         3.76095
   H       -3.59034        -7.99918         1.78018
   H       -5.87630        -4.94382        -1.31458
   H       -7.79316        -7.42671        -3.09959
   H       -6.49133        -6.21587        -3.18636
   H       -7.80766        -6.03571        -1.98872
   H       -1.32917       -13.22427        -2.66497
   H       -2.30894       -14.58610        -3.25898
   H       -1.39159       -14.73836        -1.73006
   H       -3.20013       -16.17080        -1.78931
   H       -6.78043       -13.95706         0.73698
   H       -8.42205       -16.88648         1.98645
   H       -8.53533       -15.46824         0.91619
   H       -7.47244       -15.42459         2.35435
   H       -4.36387       -18.21436        -1.65568
   H       -6.09079       -22.99703        -0.41787
   H       -8.12505       -22.18463         4.68722
   H       -7.22798       -24.93600         0.66356
   H       -7.00155       -20.27459         3.66083
*
