# ORCA input file
# SCF done       -203.734358077446          0.000450790248
! CAM-B3LYP def2-SVP def2/J RIJCOSX Grid4 TightSCF
%maxcore 5000
%tddft
    Mode sTDDFT
    Ethresh 5.0
    maxcore 5000
end

%pal
  nprocs 6
  end
* xyz 0 1
   C       -1.33404         0.18069         8.47819
   C       -0.38299         1.14461         8.29307
   F       -0.06442         1.97766         9.29268
   C        0.27317         1.27593         7.05288
   F        1.20191         2.22999         6.89906
   C       -0.03131         0.44114         6.01449
   C       -1.00696        -0.56187         6.17391
   C       -1.67222        -0.69515         7.42699
   C       -2.65765        -1.69280         7.60870
   C       -2.97130        -2.52601         6.56745
   C       -2.29820        -2.38955         5.32193
   C       -1.33800        -1.44133         5.11900
   C       -2.78873        -3.41410         4.37749
   O       -2.33521        -3.64952         3.27948
   C       -3.82652        -4.17209         5.12393
   C       -3.93623        -3.61633         6.45443
   C       -4.85238        -3.97529         7.40979
   C       -5.84656        -4.96149         7.23793
   N       -6.69476        -5.73098         7.15955
   C       -4.94253        -3.37311         8.68159
   N       -5.05809        -2.92319         9.73137
   C       -4.41197        -5.32382         4.66896
   C       -4.47673        -5.69893         3.31427
   C       -4.54130        -4.87724         2.18872
   C       -4.59170        -5.60637         0.97417
   S       -4.67839        -4.52794        -0.36594
   C       -4.69118        -3.18126         0.81934
   N       -4.62920        -3.53252         2.04323
   C       -4.76679        -1.79047         0.33537
   C       -4.58420        -6.98359         1.13924
   S       -4.55198        -7.38224         2.84028
   C       -4.58992        -7.99247         0.16973
   C       -4.58734        -9.37074         0.43607
   C       -4.56633       -10.15573        -0.75829
   N       -4.57949       -11.48385        -0.72454
   C       -4.61577       -12.04921         0.46493
   C       -4.64569       -13.53211         0.50488
   O       -4.53541       -14.21366        -0.49470
   C       -4.80952       -14.11188         1.84601
   C       -4.82191       -13.38347         2.96755
   C       -4.67447       -11.91665         2.99692
   O       -4.60252       -11.29171         4.03218
   C       -4.62674       -11.26504         1.66177
   N       -4.61140        -9.94727         1.63641
   C       -4.56757        -9.38859        -1.93281
   S       -4.58639        -7.69964        -1.55072
   C       -4.61829        -9.97029        -3.20176
   C       -4.80828        -9.40731        -4.46049
   C       -4.90717       -10.38440        -5.48758
   S       -5.18542        -9.60583        -7.00011
   C       -5.13540        -8.04281        -6.13189
   N       -4.93850        -8.12290        -4.87065
   C       -5.31981        -6.78520        -6.88027
   C       -4.81657       -11.69368        -5.04534
   S       -4.53493       -11.70521        -3.31255
   C       -4.85694       -12.88184        -5.80288
   C       -5.01925       -14.14830        -5.32597
   C       -4.53483       -15.31356        -6.11693
   O       -4.26224       -15.33057        -7.29427
   C       -4.38797       -16.40456        -5.12934
   C       -3.83434       -17.64252        -5.28774
   C       -3.75028       -18.50380        -4.17010
   C       -4.22781       -18.05954        -2.90191
   C       -4.11883       -18.91915        -1.79049
   C       -3.56911       -20.16222        -1.93060
   C       -3.10222       -20.60225        -3.18523
   C       -3.18983       -19.79145        -4.28183
   F       -2.56729       -21.82664        -3.29409
   F       -3.46822       -20.97783        -0.87164
   C       -4.80601       -16.77674        -2.76822
   C       -4.89592       -15.97207        -3.87060
   C       -5.46265       -14.63965        -4.03556
   C       -6.45365       -14.10531        -3.25747
   C       -7.15918       -12.93570        -3.60954
   N       -7.77895       -12.01246        -3.89566
   C       -6.92854       -14.69254        -2.06790
   N       -7.36332       -15.11644        -1.09388
   H       -1.82733         0.09463         9.43376
   H        0.48086         0.55369         5.07175
   H       -3.13616        -1.77450         8.57121
   H       -0.83988        -1.36152         4.16475
   H       -4.83339        -6.02523         5.37820
   H       -5.59518        -1.67338        -0.36135
   H       -3.84739        -1.53067        -0.18899
   H       -4.89579        -1.12038         1.18081
   H       -4.91043       -15.18814         1.87280
   H       -4.92951       -13.84895         3.93795
   H       -4.59369        -6.71561        -7.68891
   H       -5.19965        -5.94237        -6.20525
   H       -6.31510        -6.75548        -7.32268
   H       -4.65087       -12.78866        -6.86476
   H       -3.46063       -17.96050        -6.24917
   H       -4.47529       -18.59761        -0.82465
   H       -2.82616       -20.14303        -5.23467
   H       -5.13786       -16.43962        -1.79940
*
