# ORCA input file
# SCF done       -254.241587196297          0.000790405704
! CAM-B3LYP def2-SVP def2/J RIJCOSX Grid4 TightSCF
%maxcore 5000
%tddft
    Mode sTDDFT
    Ethresh 5.0
    maxcore 5000
end

%pal
  nprocs 6
  end
* xyz 0 1
   C       -0.13694         3.27783         0.22480
   C        0.32878         3.18019         1.50915
   C       -0.41755         2.64527         2.58237
   N       -0.97385         2.22849         3.49444
   C        1.56944         3.69247         1.93766
   N        2.55978         4.11753         2.33310
   C       -1.51374         2.98944        -0.18119
   C       -1.78406         3.66464        -1.38679
   C       -3.02861         3.61798        -1.97925
   C       -4.02576         2.87042        -1.35525
   C       -3.75396         2.17393        -0.17265
   C       -2.49882         2.22564         0.42337
   C       -4.81976         1.29337         0.42683
   O       -5.04081         0.17748         0.04179
   O       -5.39924         1.88657         1.46157
   C       -6.46197         1.16668         2.07600
   C       -5.41087         2.80867        -1.89616
   O       -6.36294         2.44386        -1.25183
   O       -5.48043         3.21275        -3.16395
   C       -6.77286         3.18314        -3.75533
   C       -0.56159         4.35534        -1.84771
   O       -0.42446         5.07279        -2.80904
   C        0.50634         3.93673        -0.89239
   C        1.80536         4.16139        -1.23786
   C        2.98178         3.58071        -0.72049
   C        3.13178         2.41598         0.02339
   C        4.45704         2.16668         0.34354
   C        5.34214         3.14223        -0.17023
   S        4.53125         4.34584        -1.05759
   C        6.65613         2.81806         0.23430
   C        6.60303         1.63888         1.01223
   C        5.22066         1.20048         1.11329
   C        4.72755         0.14086         1.81619
   C        5.56096        -0.73154         2.54768
   N        6.24001        -1.44292         3.13674
   C        3.34307        -0.13025         1.85154
   N        2.21421        -0.33031         1.86719
   C        7.84856         1.24178         1.47169
   C        8.85684         2.10393         1.04990
   S        8.24569         3.42641         0.06931
   C       10.24000         1.99925         1.34076
   C       11.16284         2.94518         0.83795
   C       12.57225         2.87159         1.11826
   N       13.39343         3.79929         0.61588
   C       12.91596         4.76603        -0.13003
   C       11.51370         4.83569        -0.41414
   N       10.69356         3.93642         0.07335
   C       10.99660         5.87518        -1.22679
   N       10.60749         6.72512        -1.88805
   C       13.80417         5.74041        -0.64979
   N       14.49977         6.54101        -1.08118
   C       13.13435         1.84657         1.91369
   C       12.21437         0.89811         2.42046
   C       10.79767         0.97186         2.13854
   N       10.13412        -0.02827         2.71992
   S       11.15912        -0.95588         3.52832
   N       12.50209        -0.15072         3.19232
   C       14.52908         1.79779         2.16120
   C       15.20993         0.84701         2.91651
   C       16.57392         1.09048         2.94641
   C       16.94158         2.23744         2.20665
   S       15.60092         3.01076         1.48025
   C       18.34362         2.38715         2.28770
   C       18.86607         1.33990         3.08096
   C       17.77079         0.48838         3.51120
   C       17.86247        -0.65266         4.25250
   C       19.11029        -1.13191         4.70493
   N       20.13425        -1.50231         5.06405
   C       16.72875        -1.41492         4.60535
   N       15.80769        -2.03160         4.89778
   C       20.24763         1.38088         3.18888
   C       20.79774         2.44324         2.48080
   S       19.55866         3.42460         1.70514
   C       22.14817         2.82879         2.35214
   C       23.28441         2.11271         2.58402
   C       23.56625         0.70599         2.77710
   C       22.86862        -0.35536         2.26402
   C       23.26318        -1.70492         2.39779
   N       23.52383        -2.81905         2.47459
   C       21.71913        -0.22701         1.45945
   N       20.79641        -0.16752         0.77911
   C       24.89872         0.61179         3.37745
   C       25.50867         1.88011         3.33476
   C       24.56177         2.86244         2.76795
   O       24.74692         4.03314         2.53724
   C       26.79358         2.08272         3.79320
   C       27.48484         0.99087         4.31430
   C       26.88028        -0.26951         4.36931
   C       25.58589        -0.47072         3.90282
   C       27.68050        -1.44690         4.86125
   O       28.48349        -2.02258         4.17854
   O       27.32228        -1.79033         6.09157
   C       28.05388        -2.86427         6.67226
   C       28.85857         1.12914         4.87066
   O       29.34596         0.34373         5.64521
   O       29.47669         2.22313         4.42855
   C       30.79930         2.42699         4.90808
   H       -3.22645         4.15073        -2.89583
   H       -2.31118         1.66741         1.32658
   H       -6.13129         0.16327         2.35029
   H       -7.29968         1.09059         1.38095
   H       -6.74363         1.73593         2.95761
   H       -7.45000         3.85008        -3.21798
   H       -7.17906         2.17040        -3.72412
   H       -6.64344         3.51374        -4.78238
   H        1.93733         4.84368        -2.07272
   H        2.30991         1.76980         0.27203
   H        8.05388         0.38140         2.08186
   H       14.70058         0.03421         3.40091
   H       20.83596         0.70638         3.78388
   H       22.32139         3.86710         2.08305
   H       27.24885         3.05955         3.75217
   H       25.14182        -1.45130         3.96380
   H       29.09089        -2.55994         6.82212
   H       28.02815        -3.73755         6.01794
   H       27.57439        -3.07876         7.62339
   H       31.14561         3.35277         4.45686
   H       31.43922         1.59292         4.61479
   H       30.79985         2.50418         5.99700
*
