# ORCA input file
# SCF done       -190.108718249595          0.000797892800
! CAM-B3LYP def2-SVP def2/J RIJCOSX Grid4 TightSCF
%maxcore 5000
%tddft
    Mode sTDDFT
    Ethresh 5.0
    maxcore 5000
end

%pal
  nprocs 6
  end
* xyz 0 1
   C      -12.59652        -5.37506         9.98990
   O      -11.51345        -4.83253        10.04462
   C      -13.81458        -4.91269        10.68889
   C      -14.87329        -5.80154        10.44289
   C      -16.11928        -5.54842        10.99374
   C      -16.28132        -4.41468        11.78212
   C      -15.21905        -3.54123        12.02576
   C      -13.96924        -3.78941        11.47425
  Br      -15.46802        -2.00945        13.10388
  Br      -17.98355        -4.06578        12.52720
   C      -14.38593        -6.88488         9.59145
   C      -15.11398        -7.99287         9.24821
   C      -16.45550        -8.20437         9.63675
   N      -17.54403        -8.43567         9.91676
   C      -14.65386        -9.09836         8.49902
   N      -14.36866       -10.04604         7.91684
   C      -13.00306        -6.58760         9.24597
   C      -12.29273        -7.29455         8.31032
   C      -10.97676        -7.15745         7.83249
   C       -9.91956        -6.33878         8.20757
   C       -8.79958        -6.54618         7.41984
   C       -8.96691        -7.53033         6.42333
   S      -10.53728        -8.21552         6.48216
   C       -7.82914        -7.68084         5.63010
   C       -6.79533        -6.81105         6.02498
   S       -7.21850        -5.81402         7.38675
   C       -5.65969        -6.90404         5.23125
   C       -5.82131        -7.84349         4.22503
   S       -7.38353        -8.63809         4.26300
   C       -4.91715        -8.17250         3.19897
   C       -5.14392        -9.10868         2.18541
   C       -4.07147        -9.18175         1.23610
   N       -4.12471       -10.00738         0.19085
   C       -5.20181       -10.75375         0.07871
   C       -5.26467       -11.67351        -1.08697
   O       -4.38456       -11.73365        -1.91788
   C       -6.47839       -12.50600        -1.15880
   C       -7.47372       -12.44601        -0.26841
   C       -7.48019       -11.53888         0.89308
   O       -8.40287       -11.49290         1.67702
   C       -6.27102       -10.68550         1.03090
   N       -6.23225        -9.86929         2.06150
   C       -3.02121        -8.30390         1.52255
   S       -3.37097        -7.41140         2.97137
   C       -1.87416        -8.12438         0.72878
   C       -0.82041        -7.24792         0.93644
   C        0.10150        -7.31097        -0.10010
   C       -0.24217        -8.23744        -1.10160
   S       -1.72299        -9.05197        -0.75157
   C        0.68381        -8.24307        -2.14548
   C        1.73120        -7.32580        -1.93680
   S        1.57779        -6.45227        -0.43879
   C        2.66472        -7.29981        -2.96134
   C        2.34757        -8.19109        -3.97778
   S        0.85513        -9.06002        -3.64407
   C        2.98188        -8.40633        -5.21781
   C        4.22998        -8.04827        -5.63850
   C        4.48856        -7.96516        -7.10173
   O        3.78608        -8.38327        -7.99027
   C        5.75641        -7.21145        -7.22398
   C        6.28740        -6.97651        -5.94248
   C        5.42510        -7.61796        -4.94937
   C        5.81253        -7.96512        -3.68139
   C        5.05987        -8.80983        -2.84064
   N        4.49136        -9.51604        -2.13742
   C        7.04387        -7.58775        -3.10627
   N        8.02500        -7.28762        -2.59248
   C        7.45822        -6.25181        -5.80352
   C        8.08491        -5.77618        -6.95028
   C        7.55953        -6.02643        -8.21990
   C        6.38242        -6.75067        -8.36310
  Br        8.43712        -5.37717        -9.76234
  Br        9.67362        -4.76984        -6.76163
   H      -16.96476        -6.19578        10.82798
   H      -13.13948        -3.12278        11.65138
   H      -12.83339        -8.09187         7.81374
   H       -9.98511        -5.62732         9.00968
   H       -4.76458        -6.32337         5.35856
   H       -6.51653       -13.18424        -2.00064
   H       -8.34956       -13.07404        -0.36049
   H       -0.74865        -6.60277         1.79277
   H        3.50259        -6.62804        -2.99354
   H        2.36124        -8.85287        -5.98943
   H        7.88899        -6.03690        -4.83874
   H        5.96664        -6.94732        -9.33905
*
