16
 SCF done        -31.853790676630          0.000022647149
C          -1.23923494141581   -1.24082739625441    0.00179658203873
C           0.00113936841900   -0.69432409540051   -0.00143132032815
C           1.40623247239895   -1.14072403220522   -0.00545946524960
O           1.87570576047952   -2.24893045734430   -0.00713090857145
N           2.14853734925897    0.03749466715916   -0.00714266867345
C           3.59060809493876    0.05316531907650   -0.01116472287274
C           1.38588868121350    1.20256055782419   -0.00461396954586
O           1.83811563106056    2.31748032665739   -0.00549089845207
C          -0.01208050380944    0.73210109186002   -0.00091155922048
C          -1.26236692455923    1.25514643241327    0.00270841258318
S          -2.44508256909424   -0.00410932211005    0.00554448457815
H          -1.52773847855022   -2.27264670754273    0.00223137100755
H           3.93398849880705   -0.97975935810401   -0.01180503810804
H           3.96118352270210    0.57072181186701    0.87444081613171
H           3.95629620184519    0.57014923165715   -0.89913862929568
H          -1.57035216369465    2.28131193044652    0.00389751397817
