24
 SCF done        -49.702549868511          0.000800260601
C          -1.19264416193120    0.06534044474114   -0.33096876119415
C          -0.39881948489325    1.19368894240282   -0.18364977194904
C           0.97548480761946    1.07288896882790   -0.38731475562484
C           1.80357303777597    2.21459259179055   -0.24060263968318
N           2.46514120845912    3.14046427063661   -0.12002917253657
C           1.55786254489742   -0.16228900331618   -0.73588204933989
C           2.95702250012692   -0.25075195352647   -0.93741336287196
N           4.08640274426245   -0.34135686996514   -1.10112452239122
C           0.75819825382028   -1.29548031731827   -0.88247366620136
C          -0.60058412342689   -1.16605338641408   -0.67830379062127
C          -1.64152164371423   -2.21229431432795   -0.77253890366385
O          -1.49634070438758   -3.37574096520969   -1.04843626713234
C          -2.93015994176903   -1.52100755010101   -0.44981185332009
C          -2.63505976117258   -0.11118050624774   -0.18502783205448
C          -3.53797123603468    0.85803884877228    0.13361903071069
C          -3.20574281829274    2.21102472089837    0.37858365217810
N          -2.99174253075487    3.31829970288356    0.58459319185251
C          -4.93059997302130    0.64288132364065    0.25967946848632
N          -6.06552007256251    0.53442484588683    0.37935244157030
C          -4.09002430470005   -2.18239516556296   -0.43282950687490
H          -0.80777036372581    2.15555552922937    0.08207069069265
H           1.18792356547701   -2.24939783868988   -1.14839946506850
H          -4.08285441123481   -3.23683112965170   -0.66135000837755
H          -5.03887313081652   -1.73068118937868   -0.20411214658475
