15
 SCF done        -24.517965743865          0.000051622091
C           1.43946997558616    1.21431541552968    0.00129378727274
C           0.15269540660440    0.78512675701447    0.00038651928605
S          -1.39604687339926    1.57652249020881    0.00184017702144
C          -2.21164348707771    0.01063320981879   -0.00132229258029
C          -3.69965256837543   -0.02117192119206   -0.00133299052747
C          -1.36066715873475   -1.03665156843694   -0.00330007379579
C           0.01208339264398   -0.64250925556675   -0.00238741159552
C           1.22515231007022   -1.26729225351259   -0.00348152107787
S           2.51845016695709   -0.13086775251255   -0.00122922905459
H           1.82552026195258    2.21253740427748    0.00321678514457
H          -4.10167901421913    0.98870284727110   -0.00231787726160
H          -4.06924784043984   -0.54371166663634    0.88080876838142
H          -4.06920913478645   -0.54557675213372   -0.88235567641711
H          -1.68138812046742   -2.06304156567388   -0.00539947600756
H           1.44250268368553   -2.31581538845550   -0.00543948878839
