27
 SCF done        -43.172947613534          0.000632473465
C          -0.37635274066887   -1.14508166008415   -0.43397318079877
C           0.84534991404945   -0.58194123697324   -0.58148554307694
C           0.94128409144898    0.70701963925535    0.01747874363302
C           2.14526067356996    1.53772160323303    0.00720837956352
C           2.04380441679432    2.91915847794416   -0.00912405426370
C           3.19096351378223    3.71262919360353   -0.01125131255185
C           4.43939425844576    3.11339336243749   -0.00039051783725
C           4.54437651152742    1.72128685663116    0.01451316593343
C           3.40478949434177    0.93457545861948    0.01835038232185
O           5.82214680750430    1.24320599073875    0.02574246215231
C           6.01753198970840   -0.14934951925688    0.03062130620754
O           2.97775828107668    5.05724697294230   -0.02643100194482
C           4.09505511635611    5.91216048564390   -0.01482105404544
C          -0.23712687645636    1.06705504051042    0.60586493577480
S          -1.45228228672038   -0.13354070984953    0.44914922647059
H          -0.72188221789081   -2.09513802069052   -0.79006678707643
H           1.64997254421800   -1.04913583716288   -1.11995030383460
H           1.08348815360293    3.40670071292194   -0.03755298069120
H           5.35549682630499    3.67966530762621   -0.00319658586420
H           3.47089695156769   -0.14026257075938    0.05201322407189
H           7.09680675318152   -0.29561224932884    0.03399049311746
H           5.59279340621613   -0.61793798098545   -0.86316853351133
H           5.58770871367779   -0.61360146844520    0.92406901724184
H           3.69217332465305    6.92396042353411   -0.02261521335388
H           4.72252117959622    5.76548281459759   -0.89958339203739
H           4.69950868150141    5.76972582846691    0.88659470095037
H          -0.45725748138881    1.96369308482971    1.14935442344914
