37
 SCF done        -67.381548984271          0.000253732741
C           1.81332239289490   -0.93479386583923    1.58720567641110
C           2.09305837798651    0.29084733578018    0.99814567634294
C           1.09367985421676    1.08135738780099    0.44824252728891
C          -0.19604363754805    0.59248570467356    0.51500989617746
C          -0.47404073502261   -0.64546371689359    1.11256030560604
C           0.51772558905616   -1.43111391330924    1.65763199529277
O          -1.81771635753450   -0.88339490957616    1.04783831292979
C          -2.38334136364522    0.16990245152154    0.42664099873439
C          -3.72642290860693    0.30703995546159    0.19582418845361
C          -4.65648718392695   -0.64781582086742    0.61668963913229
C          -6.02589815070746   -0.61389126273776    0.53625477705268
C          -6.96719178247128    0.42422546919615    0.20734349730590
C          -6.80393916805203    1.78507496433150    0.31801810408998
C          -5.66692514587295    2.43337913706431    0.83396963745172
N          -4.78747143617905    3.03351313886045    1.26819878058754
C          -7.80401328540364    2.72955911292732    0.01112050816122
N          -8.55930638120590    3.55945456837419   -0.23557516587515
C          -8.25155040078024   -0.22817584700996   -0.07208104360025
C          -8.15195272930874   -1.58928647885313    0.26530336657499
C          -6.77274097088515   -1.87959796311230    0.71088315077862
O          -6.32972841681830   -2.93913044206438    1.10259920695930
C          -9.22601164493954   -2.44719871847774    0.14217149644707
C         -10.42398428774781   -1.93539087989503   -0.33780914231494
C         -10.52565768469381   -0.59775529657361   -0.68820610680818
C          -9.44841528629133    0.27030165728688   -0.55907083705327
N          -1.41459603783449    1.07208484665255    0.08335873633569
H           2.62010446692414   -1.51784801761330    2.00220750888171
H           3.11333073335154    0.63986246725260    0.96600962267565
H           1.31216021676123    2.03307212569147   -0.00788266202806
H           0.29159630630569   -2.37984851098881    2.11401296289194
H          -4.04018789328694    1.19752683721604   -0.32045835629585
H          -4.25334082859944   -1.57773815318946    1.00419312055269
H          -9.12276539882113   -3.48589627053841    0.41646115336539
H         -11.28191765009316   -2.58265524875406   -0.44270507409798
H         -11.46156026442425   -0.21739857341024   -1.06979081385105
H          -9.55560219833853    1.30372176425829   -0.84599188495769
H          -1.59943870846495    1.97200496536018   -0.32347375959964
