16
 SCF done        -31.521629094822          0.000117754233
C          -0.12176752454465   -1.36700720600871   -0.00294824052039
C           1.10180795150822   -0.73237917739984   -0.00249528369570
C           1.22572316900559    0.68629715526027   -0.00030772923784
N           2.51479819943456    1.13477198830379   -0.00017883066324
C           3.34952214313480    0.17501476214585   -0.00206316614694
S           2.68843763516832   -1.44640905345666   -0.00435397693617
C           0.09555129658681    1.49357730972645    0.00147655353570
C          -1.12802411157807    0.85894913267000    0.00102486094724
C          -1.25193941948977   -0.55972714172734   -0.00116220481375
N          -2.54101454927759   -1.00820195840556   -0.00129211845818
C          -3.37573842068135   -0.04844473633170    0.00060179868291
S          -2.71465392270454    1.57297907614343    0.00287058668764
H          -0.21780705869041   -2.43965517209718   -0.00460508921087
H           4.41323144492051    0.31294961685669   -0.00234183185440
H           0.19159086660757    2.56622524494476    0.00313052765127
H          -4.43944769940003   -0.18637984062425    0.00086414403270
