26
 SCF done        -55.464543956037          0.000685293459
C          -0.82278742326759   -1.41481708979959    0.07302197119997
C           0.02746871453155   -0.31393173403204    0.07623908006701
C          -0.41168564902793    1.01720112347426    0.62375523633246
O           0.35995168870453    1.76637752759053    1.14876518707496
O          -1.70888753169566    1.31562780140133    0.50672703321482
C           1.35585307637223   -0.43628601418632   -0.36977387331495
C           2.23446396458617    0.67763939934645   -0.40405096356218
N           3.00842838583161    1.51427589752220   -0.51023526414751
C           1.84167436484132   -1.66660843790640   -0.81928668614954
C           0.98773819481428   -2.74981578526413   -0.81391240290107
C          -0.34810584505811   -2.63795337162851   -0.38323553457534
C          -1.01000203235058   -3.93313038803883   -0.49968576837886
C          -2.33704239326052   -4.17990832886486   -0.30739213847701
C          -3.27813514276940   -3.17773214532769    0.01963582835309
N          -4.06332251409910   -2.37718789938499    0.26033197486408
C          -2.94475083978483   -5.44904281394123   -0.44865389341417
N          -3.49487618407941   -6.44999119841933   -0.54465869405522
C           0.00085164861166   -4.89965391850092   -0.93174624847916
C           1.27237843352677   -4.15113906464134   -1.19565757569249
O           2.30164755651171   -4.60881915507640   -1.61998271742061
C          -0.07558984888258   -6.22479035346184   -1.07440393485381
H          -1.82653545844938   -1.32825027447424    0.46128665010535
H          -2.23813639197469    0.64937703455680    0.04715002733966
H           2.86183754277708   -1.77033445325266   -1.15658361528047
H          -0.95962260239535   -6.80202108538148   -0.86833169855783
H           0.80086628598384   -6.75800527231584   -1.40804197929320
