44
 SCF done        -67.077833948957          0.000167089884
C           3.49904861793876   -0.24843314792683    0.09786995226776
C           2.57526350859232   -1.22805448721291    0.05593184323613
C           1.23691345985217   -0.72969345549317    0.03151228876134
C           1.20756303179710    0.68457496399865    0.03168111014559
S           2.82228143627736    1.34626886404654    0.10563149435300
C           0.03135644566802    1.42085945020404    0.01483002139753
C           0.03611939975058    2.88825121997187    0.10024599466256
C           0.79507534810590    3.65435949931749   -0.77977760729795
C           0.80963943538550    5.03083065085356   -0.67522480011632
C           0.07617234653083    5.68212076439910    0.31036040348899
C          -0.67890937137922    4.91478066886198    1.18721165243485
C          -0.70250535216496    3.53673909336424    1.08513417484524
C           0.10152168511428    7.17687403120104    0.40921415778758
C          -1.16214695015190    0.69073301285318   -0.05541082035633
C          -1.13220135027709   -0.72347229926807   -0.07062634967911
C           0.04196710106409   -1.46007027663517   -0.00274113079895
C           0.03145248834593   -2.92834793776816    0.06481425881802
C          -0.65490310255667   -3.68460518092868   -0.88038068082040
C          -0.67735571326978   -5.06255007676835   -0.79191469952278
C          -0.02454839646720   -5.72432866246664    0.24147339158287
C           0.65901291388981   -4.96633010328279    1.18359649619373
C           0.69028998069621   -3.58774871206060    1.09836381129950
C          -0.04667724245571   -7.22017131697033    0.32258960458090
S          -2.74730827514786   -1.38520253640022   -0.13484492548910
C          -3.42212404550052    0.20981710301562   -0.17552432183101
C          -2.49843202720002    1.18943192297369   -0.13128684127695
H           4.56689021639489   -0.34835308542597    0.11953090055973
H           2.81317490984202   -2.27616503645238    0.02876839534778
H           1.36317013392828    3.16688706862635   -1.55829766819205
H           1.40051124081997    5.61272630334273   -1.36827502033381
H          -1.25231514803250    5.40034864019894    1.96446473888279
H          -1.27887065599726    2.95299175127595    1.78863532666496
H           1.12685341381752    7.54281995473428    0.39951972140385
H          -0.38315196624491    7.51588604129185    1.32137756890723
H          -0.41724227770329    7.61941835434368   -0.44135062488128
H          -1.16035278988828   -3.18885315174180   -1.69598004348568
H          -1.21207294813966   -5.63593276963144   -1.53578246798390
H           1.16877298460342   -5.46103418865479    1.99851676906853
H           1.20854584220760   -3.01155854422594    1.85154734390702
H          -1.02333624181121   -7.60711758898945    0.03940053075034
H           0.18937733791261   -7.55900087669155    1.32847272874055
H           0.69119687161933   -7.64267535997131   -0.36046571995153
H          -4.48832551842818    0.31001182656750   -0.23808979993957
H          -2.73394077733916    2.23792760952475   -0.16410115813150
