20
 SCF done        -30.848218434581          0.000208991951
C          -2.08376512689297   -0.71463777054116    0.00103646608658
C          -2.11816783049108    0.66864921975653   -0.00093910122353
C          -0.95193907524450    1.42673720020674   -0.00265299426490
C           0.24547368239488    0.74033434387840   -0.00228438694249
C           0.27404751603471   -0.66114530687682   -0.00021123657230
C          -0.87659218747349   -1.41120007804770    0.00144121630851
O           1.57185296011863   -1.08778431604383    0.00005877517088
C           2.36985789985953    0.02966706411384   -0.00157744165604
N           1.55689657921898    1.15924375365786   -0.00388656307524
C           1.97808611310854    2.52801377467929   -0.00278062315231
C           3.69983341728923   -0.04475537171369   -0.00128132716806
H          -3.00853084958135   -1.27046846791546    0.00236814506614
H          -3.07127201977137    1.17571283114700   -0.00110492039888
H          -0.98423036732768    2.50460687196200   -0.00410888290704
H          -0.84168541973778   -2.48795332678307    0.00304525754288
H           3.06325885506395    2.57339799644534   -0.00727992313862
H           1.60541781954786    3.04054146852660    0.88858080926274
H           1.59803507278335    3.04361696895526   -0.88913318208166
H           4.17666828585269   -1.00358688855787    0.00020991871407
H           4.32142467524790    0.82716003315074   -0.00261000557075
