10
 SCF done        -21.912487708072          0.000762003041
C          -2.12005493097786    0.39036348834640    0.00404750650792
N          -1.61183287766727   -0.78877417131952    0.00386222268557
C          -0.26968641604904   -0.71109697862836    0.00222141057125
C           0.27211639085789    0.57868303028277    0.00114327202612
S          -0.99962905368317    1.73654155968132    0.00234645691170
N           1.61426290763217    0.65636012300671   -0.00049869300938
C           2.12248484951335   -0.52277754207998   -0.00075947147712
S           1.00205912643190   -1.86895560101480    0.00112845359403
H          -3.17631775491774    0.57010703090364    0.00528304349279
H           3.17874775885977   -0.70252093917817   -0.00194420130287
