25
 SCF done        -36.367040016388          0.000453709822
C           2.15556662289506   -0.56282268000355    0.04903035014204
C           2.20563652340944    0.83194842095077   -0.13899252363942
C           1.09252908448536    1.63160363132035   -0.23539462581198
C          -0.19553224166899    1.05548202675990   -0.14545456270839
C          -0.22472128318917   -0.32648051885398    0.04218456098365
C           0.91607028489242   -1.15008206108090    0.14152355689027
N           0.47302352148747   -2.44114012593306    0.31937884510957
C           1.29979372381730   -3.60204860710176    0.47334189010797
C          -0.92458394263932   -2.48054615765565    0.34486089383160
C          -1.38723274595463   -1.10348844621079    0.15932688452526
C          -2.60458450644337   -0.47001889374772    0.08268989593979
C          -2.61015371592890    0.92272140751666   -0.10679355450250
C          -1.46193337174392    1.67408434384103   -0.21805742606395
C          -1.66855864037223   -3.58013731312808    0.51208714105723
H           3.07561335749332   -1.12392161034951    0.11500076772893
H           3.18263314857451    1.28962522570355   -0.21013855216954
H           1.19678895400674    2.69662901252238   -0.37910900005011
H           1.07698785176246   -4.34158219684008   -0.30197819365546
H           1.14331862246854   -4.06585259462006    1.45262025598336
H           2.34393912454580   -3.30991652981743    0.38762493730164
H          -3.53752632497915   -1.00706366914704    0.16326767079466
H          -3.56698914078445    1.42264432250424   -0.16721025735427
H          -1.52700286767473    2.74303390529859   -0.36238422539018
H          -1.24180410277015   -4.55722939884795    0.64476374255730
H          -2.73992793568939   -3.51022149307992    0.51611152839241
