21
 SCF done        -39.155737180184          0.000446519996
C          -1.13203852964964   -1.28930833314608   -0.63718434930249
C          -2.29525512087155   -0.66024447600513   -0.29073441250933
O          -3.47540791990835   -1.30650317113615   -0.55630289177526
C          -4.29350349221621   -1.59026104502813    0.56920542719683
C          -2.29021739147872    0.66368457731586    0.29368877177747
O          -3.46605087694015    1.30723335294259    0.58420263608577
C          -4.30574212111879    1.59255276240226   -0.52482243438714
C          -1.12111656846115    1.29502605973284    0.61512665875049
C           0.08612088382090    0.64505681905520    0.30825905415568
C           0.08024010432867   -0.63715845446916   -0.35596698475449
N           1.33906703411276   -0.98447769919444   -0.54704607510809
O           2.07421245519487    0.00624835508584   -0.04578717408625
N           1.34811147418052    0.99429649204563    0.47317120834497
H          -1.14735971639074   -2.26514526634207   -1.09244492989008
H          -3.80554872702264   -2.32755523347224    1.21472430359841
H          -5.21260086409635   -2.01138612761864    0.16660337896445
H          -4.52074653319813   -0.69697776276510    1.15418287780923
H          -3.83709242743625    2.34234707566333   -1.17026086107963
H          -5.22339865911174    1.99830713602883   -0.10365209809658
H          -4.53147053289575    0.70256836415934   -1.11538886694337
H          -1.12855247084084    2.27075657474614    1.07083676124926
