19
 SCF done        -32.258598875806          0.000295717816
C           3.01847662458491   -0.59607741845755    0.00308447356596
C           2.55490150127591    0.67891144224397    0.00320443544627
C           1.14607746066326    0.71625644355759    0.00305919800895
C           0.56025380038610   -0.54537447477445    0.00281212033668
S           1.75983136356620   -1.78896178307268    0.00275146352528
C          -0.84337889427922   -0.47157471456508    0.00265237544790
C          -1.30928916306479    0.84859043741195    0.00276642342579
S          -0.01832267464792    2.01820249846597    0.00308465117790
C          -2.71208244858542    0.80298710217940    0.00252614056396
C          -3.04130486897007   -0.53123594862381    0.00225936733395
N          -1.91737490850550   -1.30414142789118    0.00230992894445
C          -1.85442849495830   -2.73757193026764    0.00228907100483
H           4.03653977420415   -0.93031468892871    0.00316982162833
H           3.18328892060905    1.55023322838957    0.00341004871328
H          -3.39095894243987    1.63083162620363    0.00254204392702
H          -4.01363805608876   -0.98410852690923    0.00201455172503
H          -2.86427992114625   -3.14347602107608    0.00143804186189
H          -1.32447245045598   -3.09651483486202    0.88792671466498
H          -1.32301862214752   -3.09638100902366   -0.88252087130246
