48
 SCF done        -75.974807895938          0.000409593224
C           1.49495273680337    2.19268682457476    0.28523185847960
C           2.05986193648223    0.99547222535353    0.69227460620119
C           1.30085689433068   -0.16800860390997    0.73731211198131
C          -0.02436444409962   -0.10304045206662    0.37340249664459
C          -0.58617783872393    1.10554532893497   -0.04632772749680
C           0.16161788369445    2.26883241444602   -0.09134616262008
N          -1.93081958872576    0.91609086263458   -0.35225072952633
C          -2.30676397960280   -0.36055352362965   -0.09185268294833
C          -3.55640772443552   -0.91871032767683   -0.16329681262238
C          -4.78382389219949   -0.26456169491186   -0.31159930665023
C          -6.03555874311453   -0.82309226090443   -0.42635887519309
C          -6.50116592711862   -2.16057435779926   -0.67138611176431
C          -5.83403694611954   -3.18305281755260   -1.30417066471757
C          -4.56896235595710   -3.06560660025782   -1.90853396364564
N          -3.56012101608001   -3.03119878679260   -2.45871786509472
C          -6.37479546554035   -4.46526205747021   -1.52289403641196
N          -6.74234000206250   -5.53647875166088   -1.71638777502072
C          -7.92207234146559   -2.19823609511221   -0.30690395834764
C          -8.35564067491310   -0.88801143411925   -0.03709880306643
C          -7.20693054026891    0.03410681203479   -0.15004711167908
O          -7.20614811413821    1.24187663867897   -0.01352861864774
C          -9.66572620543051   -0.61293305585587    0.29818610487700
C         -10.56007509852728   -1.67212888360259    0.37584742140924
C         -10.13682246523156   -2.96842480079903    0.12561684693764
C          -8.82031268412278   -3.24830578994156   -0.22038836372068
C          -1.08197746622529   -1.17059939867958    0.30094135544287
C          -0.73628807307299   -2.17116473703128   -0.81262834463536
C          -1.26959434385579   -1.89137374554493    1.63716987467422
C          -2.71892186144709    1.93474959191463   -0.98927603692480
H           2.09931754452471    3.08684829273247    0.26230696143740
H           3.09916407974658    0.96658771917715    0.98113104688153
H           1.74409236103681   -1.09916010322841    1.05530787758350
H          -0.26443712004616    3.21221578229443   -0.39486510573977
H          -3.58876785958206   -1.98837352451451   -0.02176573684757
H          -4.81957526365817    0.80996893549232   -0.18875449993747
H          -9.97266280374032    0.40343125233499    0.49255877481246
H         -11.59157441943555   -1.48687512221145    0.63603924441321
H         -10.84303174952080   -3.78205044553388    0.19949695715755
H          -8.51873292526908   -4.26669004610366   -0.40447451651574
H          -0.52772254950704   -1.64461438798625   -1.74111683601580
H          -1.56373809509768   -2.85235890017390   -0.99157733594594
H           0.14420765111760   -2.74373714307451   -0.53296440108428
H          -1.55415255809625   -1.18504525888757    2.41419151840184
H          -0.34010484444531   -2.37271416076516    1.92964677877486
H          -2.04069159313443   -2.65266689359523    1.55782710477652
H          -2.05579464614059    2.59427202285377   -1.54907055281653
H          -3.27296786651895    2.53374173507132   -0.26215570212595
H          -3.41978900105019    1.47475772287024   -1.68582030311721
