23
 SCF done        -40.438315125104          0.000423880920
C           0.18010151909802   -1.43594149148086   -0.16040315839629
C          -0.98609071570325   -0.68254743976025   -0.13559894711698
C          -0.94698626887795    0.74719935004713    0.02531832381187
N          -2.10735052148463    1.45570276005911    0.04863105594982
C          -3.23441728616655    0.82150302924115   -0.07340598843309
C          -3.27348688772608   -0.60957205546107   -0.23569890508853
N          -2.18295587488413   -1.31477952792025   -0.26450913411806
C          -4.57013379262467   -1.33404816929449   -0.37531533660748
C          -4.48948649197815    1.62739559760996   -0.03933252665199
C           0.25828559601033    1.42329740911394    0.16074199339255
C           1.42850325399695    0.67550699962645    0.13815098108238
C           1.38900642699854   -0.76601820503606   -0.02373118835762
N           2.62055567434477   -1.29822805600391   -0.01761938346564
S           3.68525050275069   -0.12027642299322    0.16905383855687
N           2.68681975160401    1.12598119332630    0.25399841892087
H           0.13722701135470   -2.50553402964883   -0.28036143704704
H          -5.11710076935906   -0.97123473659765   -1.24423571429799
H          -5.19136977599384   -1.17293731869227    0.50448680688908
H          -4.37624898329859   -2.39659626364255   -0.48930233159849
H          -4.23823913768270    2.67616572805371    0.08945797856030
H          -5.12519515742297    1.30446807842496    0.78368222156891
H          -5.04764925751183    1.50065497462652   -0.96566805734548
H           0.27396118455643    2.49363859640223    0.28064048979197
