22
 SCF done        -41.785273060060          0.000709626317
C          -0.10771685003514    0.63816529043477   -0.00050786190706
C          -1.35584143485116    1.18469106692919    0.00151674766142
S          -2.56249685467194   -0.04488427949288   -0.00001065748549
C          -1.38651477155347   -1.32987713989169   -0.00323683455958
C          -1.78564884184813   -2.75528192134541   -0.00532071951659
C          -0.13149138215172   -0.79651769672624   -0.00332555446331
C           1.23447907907400   -1.31476147081131   -0.00613871289523
O           1.61405111593458   -2.46165884113899   -0.00828448557697
C           2.11282220474045   -0.09045724646413   -0.00515982530996
C           1.25988024950275    1.10348498259989   -0.00085469911055
C           1.65567974464187    2.40967426826906    0.00391735255069
C           0.71602824301321    3.46368920651951    0.01067334014635
N          -0.03966399438575    4.32626353566071    0.01631821624119
C           2.99522018211920    2.85058516564716    0.00499427253694
N           4.06582048067158    3.26338103463955    0.00590196236370
C           3.44367982187348   -0.18321737729963   -0.00932392015705
H          -1.65069527438988    2.21497440027074    0.00357281033828
H          -2.86724786644497   -2.85881013672392   -0.00708117148626
H          -1.37651628840280   -3.25703625540043    0.87154000941914
H          -1.37363270042795   -3.25530002685137   -0.88179985330170
H           3.89409151982904   -1.16315719384824   -0.01413420320669
H           4.10203361776274    0.66756063502367   -0.01113621228128
