26
 SCF done        -43.772262807457          0.000613596918
C           3.51819305910930   -0.20013221281929    0.00651591746764
C           2.59115232610126   -1.17540649693026   -0.04876946831960
C           1.25635214612960   -0.67368959020241   -0.03353231148667
C           1.22765148909487    0.74133585967437    0.03211071785807
S           2.84349945941742    1.39193782756076    0.08007196344823
C           0.04009804589984    1.45347269407997    0.07081516864206
S          -0.01566793113447    3.22596098259475    0.18028743686815
C           0.79357104872697    3.69255844747616   -1.38308628495250
C          -1.15349203686203    0.72719600420655    0.06306610376084
C          -1.12474355372657   -0.68782551268346   -0.00258921884016
C           0.06279959429287   -1.39996747792293   -0.04101368211087
S           0.11819196938703   -3.17252046446355   -0.14916685950973
C          -0.68913512944725   -3.63661105277001    1.41592907883171
S          -2.74051794015945   -1.33851103030844   -0.05084435217813
C          -3.41528302254358    0.25348940817268    0.02300658609328
C          -2.48829553558425    1.22883664978409    0.07804310596024
H           4.58602142369079   -0.29929903891922    0.01211351621328
H           2.81474753539798   -2.22527913118224   -0.09903895310279
H           0.74218273087580    4.77526704222258   -1.42904054385596
H           0.24525094970566    3.25404270286448   -2.21153673867889
H           1.82876647767321    3.36756612545230   -1.38497750227096
H          -0.63696024667757   -4.71922353346673    1.46396054945482
H          -1.72458425705696   -3.31222584432586    1.41825539095823
H          -0.14018013453154   -3.19615119457203    2.24300251467696
H          -4.48310891614591    0.35265302390136    0.01733145284779
H          -2.71195955163316    2.27869581257634    0.12809641222494
