19
 SCF done        -38.611570543727          0.000565048367
C          -0.05871990319297    0.59232611663350   -0.00137086077606
C          -1.31888046023505    1.11381051939064    0.00151948651926
S          -2.50117282486254   -0.13663165327146   -0.00157203385082
C          -1.30456609764008   -1.37666064689848   -0.00626795502692
C          -0.05610867265062   -0.84250860127889   -0.00585503081058
C           1.32604823644454   -1.33352694898793   -0.00915509526768
O           1.72966179635110   -2.46980905605084   -0.01217327899249
C           2.17698111582388   -0.09054997417830   -0.00696416220994
C           1.29986181211493    1.08575736476617   -0.00167500988501
C           1.66824031464126    2.39930273574312    0.00383888426712
C           0.70646701840858    3.43374750289109    0.01188613177246
N          -0.06732714690041    4.28003202876191    0.01860098646137
C           2.99872625848873    2.86804187634614    0.00526255443271
N           4.06028942998317    3.30288134391912    0.00635249974374
C           3.50967845168766   -0.15601368623070   -0.01109727684923
H          -1.63120365053199    2.13899005148461    0.00476833376898
H          -1.59649291926704   -2.40768859515530   -0.00934105714135
H           3.98074144992642   -1.12615345290315   -0.01700111891067
H           4.14989579141040    0.70852307501875   -0.01200599724487
