16
 SCF done        -26.648879078863          0.000187458218
C          -1.33161409619360    0.25683726234443   -0.00089801263104
C          -0.37998759129172    1.22599601313662    0.00505566822823
C           0.92755746579188    0.70463070424031    0.00250833270670
C           0.96090077166934   -0.66515524709933   -0.00539663221655
S          -0.65215772851976   -1.32216630737389   -0.00979945629072
C           2.10135103585885   -1.52539490761021   -0.01000511854078
C           2.13469378586621   -2.89518213427395   -0.01771656327877
C           3.44223866283853   -3.41654684821452   -0.02041245601590
C           4.39386534808853   -2.44738603643789   -0.01481161338957
S           3.71440924583195   -0.86838171728504   -0.00606560750449
H          -2.39767837179810    0.36687938331294   -0.00066646079180
H          -0.60245052440366    2.27805723162370    0.01104685711102
H           1.81849416382509    1.30724385435960    0.00630986842620
H           1.24375646518403   -3.49779598209333   -0.02126255163628
H           3.66470161406009   -4.46860858928665   -0.02630862010710
H           5.45992975319236   -2.55742667934278   -0.01527763406915
