14
 SCF done        -19.316691732546          0.000167010087
C          -0.76629709488874    1.14083548210292   -0.00573391127842
C           0.61637963570641    1.22094392230639    0.00542755416645
C           1.36504992277557    0.05569714238215    0.00144121294599
C           0.74279149389800   -1.17683149042167   -0.01492799023633
C          -0.64941963844697   -1.26543825910815   -0.02528109091748
C          -1.39682645748695   -0.08747818852322   -0.02210164944182
N          -1.27588598219133   -2.49550574135995    0.03265447899861
H          -1.35976194648971    2.04385442790777   -0.00554183078599
H           1.10611557139292    2.18290881342488    0.01439396395444
H           2.44439420562284    0.10703150242903    0.00693766997735
H           1.32998455426283   -2.08470398831697   -0.01882746200172
H          -2.47636606434071   -0.14675686230235   -0.03135758248337
H          -0.72840766524388   -3.28845171448951   -0.26022933483638
H          -2.23758053457026   -2.52006504603131   -0.26532402806135
