19
 SCF done        -43.114258671249          0.000957126598
C           0.16536307540234   -1.44360854250844   -0.06975193179287
C          -1.01331557529945   -0.70492422907933   -0.06901067869408
C          -0.99297928115169    0.73811800184543    0.02961402853077
N          -2.15237679061423    1.43330823318351    0.02604901198639
C          -3.27358235212923    0.77686474229635   -0.06788162296525
C          -3.29396584016194   -0.66615806685247   -0.16529678389611
N          -2.19179939287678   -1.36046131418105   -0.16364368735723
C          -4.54147462532366   -1.33591899521108   -0.26507032509596
N          -5.56648921539422   -1.84023887860046   -0.34344657326757
C          -4.50148584381381    1.48889225748131   -0.07572308562160
N          -5.51194817498212    2.02776842729561   -0.08420942089867
C           0.20592662617133    1.43663617006648    0.12774020429647
C           1.38262991039223    0.70159796502290    0.12599550797735
C           1.36220891497950   -0.74847198486261    0.02640291552385
N           2.60369202925461   -1.25868280627196    0.04171185901350
S           3.64975504829982   -0.06165696801235    0.16563321453227
N           2.63788554345748    1.16993386568691    0.20850705574992
H           0.13540072243323   -2.51782444219677   -0.14380691231214
H           0.20622522135658    2.51132656489803    0.20093722429091
