25
 SCF done        -43.848469657614          0.000493965796
C          -1.13198536213592   -1.41118339766101    0.00082924746583
C          -1.21089407904572   -2.77255581250328    0.00242927777534
C          -2.41847915921373   -3.50693001325288    0.00335514740033
N          -3.35760645510920   -4.16559656586724    0.00381198514629
C          -0.09330575138116   -3.63737747949413    0.00384694698162
N           0.77247307186879   -4.39009416825705    0.00600992277809
C           0.08765648726099   -0.61274158772198   -0.00005938297354
C          -0.24650808883224    0.75661391396622    0.00184026379898
C           0.73493828712031    1.73030580202750    0.00156008551535
C           2.06196627737526    1.33181252116471   -0.00111512587494
C           2.41373724830387   -0.01690617052660   -0.00351941478822
C           1.41939721756785   -0.99447616333512   -0.00283260677947
C           3.84847450863609   -0.43663441278372   -0.00705075178662
C          -1.70744376124344    0.91564384291618    0.00311512447776
O          -2.35135588835961    1.93756721995484    0.00556776759280
C          -2.26146994149810   -0.47917934767347    0.00172573088819
C          -3.57545240919640   -0.71037410303311    0.00030449368528
H           0.45982674080026    2.77374962120152    0.00321280295172
H           2.84206354225882    2.07889146600632   -0.00147353530465
H           1.70446543935706   -2.03449201238435   -0.00471602489286
H           4.51167878313667    0.42390701569085   -0.00599671067779
H           4.06041198241094   -1.04224457488738   -0.88707937700988
H           4.06352892488997   -1.04693455401187    0.86894520302194
H          -4.24559643279261    0.13506409117428   -0.00114499175920
H          -4.01533118217877   -1.69186513070935   -0.00376607763225
