23
 SCF done        -34.880758534877          0.000453536999
C          -1.28307702508095    0.50208412073522   -0.56415024051511
C          -0.20574797979809    1.28102099752822   -0.27630487227433
C           0.94613390348890    0.52846325750747    0.01625380057910
C           0.70530594435499   -0.82896548952381   -0.05935943538774
S          -0.92685260691153   -1.18303222118724   -0.48812581709420
C           1.78909897008081   -1.71469169596719    0.21776619220808
C           3.01015008575912   -1.15771990181896    0.54245559250818
Ge          2.83148166903067    0.80222213049698    0.51125461367573
C           3.07684789107897    1.65621826034433    2.28740225263790
C           3.91343097414445    1.68464563441258   -0.90154894893243
C           3.98313944426301   -2.14174535513652    0.79454179764598
C           3.49871535785190   -3.40585599185360    0.66061592069106
S           1.83253992911119   -3.43825954410452    0.22022305284988
H          -2.27856646738906    0.80844690956642   -0.82000854564419
H          -0.23551661555796    2.35698311509162   -0.27335176404861
H           2.75727126684463    2.69353169358984    2.25283297588366
H           4.12260687835178    1.62657551516600    2.57709866137631
H           2.49205068595355    1.13683520981451    3.03983000130631
H           3.72596356538641    1.22279629481701   -1.86544835649339
H           4.97109822870407    1.59698762031649   -0.67349807611690
H           3.66040870130789    2.73828641162255   -0.96498222660642
H           5.00157142378280   -1.92271806498438    1.06546628252988
H           4.01653577524087   -4.33565890643443    0.79362713921969
