10
 SCF done        -21.206018928909          0.000366745420
C          -0.56886611582974    1.11891989124698    0.00200908764300
N           0.74952359344538    1.18331473525305    0.00668140610745
C           1.36519260591438    0.00448044950836    0.00901088333435
C           2.79618978109923    0.00544154292947    0.01406763486870
N           3.93926813847375    0.00613033536257    0.01813970821421
N           0.75109614021432   -1.17517430652302    0.00696797195185
C          -0.56737864880040   -1.11253947441069    0.00227796165482
N          -1.27822544361903    0.00271649561522   -0.00037591993866
H          -1.10909929800107    2.05696494140317   -0.00001905171164
H          -1.10636075289682   -2.05130461038510    0.00048031787591
