12
 SCF done        -24.232087032230          0.000475703728
C          -0.95196185082627    1.40301317491431    0.00083095790272
C          -2.07579312337317    0.61840908432075   -0.00053970483155
N          -2.07766765944406   -0.72655947177078   -0.00160084746740
C          -0.95329635284665   -1.38227845843412   -0.00136259274506
C           0.28407863728456   -0.70890088699839    0.00000109528672
C           0.27946564640497    0.72961140121236    0.00113052900250
N           1.51730945884557    1.23221662538458    0.00236158993219
S           2.56063278750747    0.01372824413417    0.00207834880093
N           1.52232287757044   -1.20758638499202    0.00045997502225
H          -0.99470883166627    2.47943043317888    0.00164532150836
H          -3.06176164665238    1.06255485175022   -0.00086061959588
H          -1.00176994280421   -2.46180861269995   -0.00222405281578
