20
 SCF done        -36.317929856974          0.000897270836
N           0.70682654642926    1.15358774830268   -0.51170906077956
C           1.38788867930490    2.43398423759580   -0.46031502639821
C          -0.66135152680581    1.15531159999125   -0.46765453117702
S          -1.48700342800222    2.57580246938582   -0.35380943968204
N          -1.33740227535883   -0.03390730128186   -0.51814375197746
C          -2.78731186476313    0.00884958316559   -0.47437840573085
C          -0.73278741134591   -1.27588257258062   -0.60457237014672
O          -1.38403717269562   -2.29515976838009   -0.63985175074254
C           0.74353094660972   -1.26225002807400   -0.64978463279520
C           1.48652090331132    0.01352160871089   -0.60123329820256
O           2.69462185910218    0.07467461874293   -0.63599791608175
C           1.41418319463058   -2.41640152270260   -0.73639622075772
H           1.06565179554861    3.06181140664485   -1.29013243169555
H           2.45570614627578    2.24101691056953   -0.52751264038753
H           1.15673749927459    2.94346559792632    0.47472010602546
H          -3.16844021753350    0.59791498540545   -1.30824580411746
H          -3.12042197241700    0.46449254924336    0.45816064993730
H          -3.14824788684305   -1.01505289260714   -0.54104989956008
H           0.88465607223602   -3.35349844617632   -0.77227191051568
H           2.49067011304208   -2.42036078388187   -0.77126166521489
