38
 SCF done        -71.055549447811          0.000656548246
C           3.50447137349303   -0.39285591551766   -0.12372592535687
C           2.54033079215446   -1.33415526645941   -0.13465477161057
C           1.22449310554487   -0.78274558867071   -0.10049721802421
C          -0.00490542027148   -1.46329620384117   -0.09115504119584
C          -0.05934691678679   -2.91154224370595   -0.02924514542641
C           0.67508087592772   -3.74276240923200    0.76562146933995
C           0.36134713349780   -5.10451728553567    0.56387111766045
C          -0.59649089695341   -5.32963024344360   -0.38070565610365
S          -1.14501615162977   -3.82544784771948   -1.03881614890701
C          -1.16784377176816   -6.62321694835881   -0.83422148568829
Cl          1.13526284593976   -6.36875420736896    1.44291866692976
C          -1.15273388987576   -0.67708110917474   -0.13110580237139
C          -1.12263884315483    0.73671414343405   -0.12734131865609
C           0.10600842172861    1.41705360650606   -0.08248846429048
C           1.25441483804172    0.63116862820290   -0.09626127015358
S           2.89331126778139    1.22445614777283   -0.07660773745815
C           0.15588734720870    2.86523218961652   -0.01363041243470
C          -0.59902143178198    3.69033288104008    0.76830229895804
C          -0.29093108770036    5.05436071410782    0.57397578211027
C           0.68272612115001    5.28696744951471   -0.35247882300979
S           1.25495257399209    3.78739969258300   -1.00064531028356
C           1.24960260749529    6.58603326494421   -0.79545981427877
Cl         -1.09056934499449    6.31296538023788    1.43798189649838
C          -2.43684771181290    1.28909726186539   -0.19301288752056
C          -3.40120655949253    0.34817110920592   -0.21233547173137
S          -2.79200972368672   -1.26986421254828   -0.15902936791635
H           4.56705139541755   -0.53653603153687   -0.14675333070987
H           2.73791957972079   -2.38866227666600   -0.18778616361016
H           1.38428294086599   -3.40325130577909    1.49764644469316
H          -0.49533460640781   -7.43609243844787   -0.57026812165636
H          -1.32102034968229   -6.61745098071620   -1.91128275418179
H          -2.13187402659250   -6.80341715066684   -0.35700110310604
H          -1.32016548090314    3.34473940243340    1.48566563526236
H           0.54912047455740    7.38806168192195   -0.57470734875673
H           1.45432161526900    6.56977825282218   -1.86369300284939
H           2.18530189944784    6.79278364054597   -0.27488352936073
H          -2.63240476985171    2.34391230673089   -0.24618489962395
H          -4.46275622588788    0.49244191190281   -0.26329498517931
