20
 SCF done        -35.208623270619          0.000987115292
C          -1.33704712588230   -1.07884747861011   -0.00217645488354
C          -0.02520429157284   -0.71123464770282   -0.00164338044910
C           0.02316016217499    0.73223324652314    0.00052365350030
C          -1.33790192110895    1.22105307238422    0.00129296525636
O          -1.81982311001143    2.33145470192553    0.00296031119993
N          -2.11722999783852    0.03609553472500   -0.00045608544714
C          -3.55354706581339    0.06058716597448   -0.00050602771807
C           1.33555233404907    1.09990157608056    0.00084787336235
N           2.11574319105542   -0.01316625392984   -0.00095607971721
C           1.33748568324133   -1.19917306318762   -0.00259634689359
O           1.82074545608816   -2.30830295103418   -0.00439018104365
C           3.55298163620343   -0.04688003203991   -0.00133338513631
H          -1.78005896034445   -2.05827490884024   -0.00365094636675
H          -3.85625937406491    1.10773729583735    0.00055279752676
H          -3.95206815282934   -0.43143935930099    0.88882913193123
H          -3.95193665814742   -0.42963366369515   -0.89089612579455
H           1.77500846135926    2.08108981088129    0.00222980251829
H           3.94448510900357    0.96770921216277   -0.00144408696782
H           3.91150912288852   -0.57876690482550   -0.88494405083582
H           3.91213550154979   -0.57878235332800    0.88202661595832
