21
 SCF done        -36.852676651416          0.000807413311
S          -1.60755955883475   -0.07432822482444    0.42772432872894
C          -0.33807823922192   -1.42764823660305    0.29887483955825
C          -0.38734550911612   -2.27951067379366    1.56549617280303
C          -0.62768089945349   -2.26600458706963   -0.94462295348333
C           0.95759847268715   -0.70603020507253    0.17757614597646
C           0.91117746130756    0.63709537586817    0.18788704284673
C          -0.42417868250921    1.19433438348970    0.32163719278867
C          -0.75747856713715    2.51785329165557    0.36444361307663
C           0.17317213437561    3.57368751175687    0.29010082471604
N           0.87811220747503    4.47703242362148    0.24407027122003
C          -2.10531218145114    2.91785160479723    0.49247603581207
N          -3.20346967579340    3.23130662302482    0.59389672746837
C           2.07560927229569    1.43350563346316    0.07264624721431
N           3.06132709596070    2.00679630956648   -0.02396818034278
H          -1.36995945121874   -2.73299941822222    1.67072113947713
H          -0.18836913521833   -1.67203502098690    2.44584611166578
H           0.35832908678053   -3.06973787848300    1.51020104245784
H          -1.60583627137255   -2.73289363523177   -0.85886630909684
H           0.12398074975403   -3.04549479902606   -1.05009266271510
H          -0.61512534034098   -1.64547170615247   -1.83824800949628
H           1.87091703103146   -1.27031877177795    0.08642037932408
