16
 SCF done        -33.087028608123          0.000803810944
C           0.08599265059698    1.56316119004427   -0.01844744791715
C          -1.17935458201282    0.77797117891909   -0.00063028106490
N          -2.36691951767545    1.34425584189229   -0.00187652016398
S          -3.50940642584942    0.19232218496506    0.01931187252818
N          -2.49693270261047   -1.07551000190291    0.03253877441685
C          -1.25553635492000   -0.63989975021624    0.01953588471975
C          -0.08161588132739   -1.55631362117831    0.02592116590524
C           1.18370653480111   -0.77117363364695    0.00448949849856
C           1.25988815583642    0.64669726674261   -0.01567628983315
N           2.50126229635548    1.08226275643443   -0.03190525070665
S           3.51369936009544   -0.18564289825807   -0.02398070335684
N           2.37124902152326   -1.33750309518580    0.00250897171830
H           0.12717846708310    2.22897915045703    0.84944625509783
H           0.11529467959791    2.20887493291528   -0.90183401902192
H          -0.12300311669717   -2.22624202567200   -0.83875197568181
H          -0.11067258479699   -2.19782947630979    0.91241006486168
