34
 SCF done        -59.750703316397          0.000500134563
N           0.74954714782388    1.11912724932695   -1.23399161486431
C           1.39155632146252    2.40568317915927   -1.26822469193191
C           1.51371857719995    3.07394633759062   -2.47541209562556
C           2.14843752615976    4.30216568832505   -2.50769188190450
C           2.66363245473071    4.84903606348252   -1.34442482958057
C           2.54505776723674    4.16910756156371   -0.14456968404188
C           1.90719187474185    2.94185937345771   -0.10077886840673
C          -0.61597213763608    1.07926721023896   -1.30276024083149
S          -1.50359043050039    2.46534427843163   -1.31686389352113
N          -1.22601647224790   -0.14458134345262   -1.34298634163206
C          -2.65673742240361   -0.18377152353047   -1.48512282573950
C          -3.44387816746945   -0.46531755643944   -0.38183843522025
C          -4.81825294990492   -0.52874901450365   -0.53029770465053
C          -5.39449705705944   -0.31250639789597   -1.77007651438089
C          -4.59814882664488   -0.03498464603679   -2.86848212062459
C          -3.22341028656875    0.02577542336240   -2.73159551325805
C          -0.58218548699677   -1.36558763650035   -1.22770651807970
O          -1.19985155029445   -2.40439730008695   -1.25383325463439
C           0.88771863633487   -1.29120670103533   -1.07723190285890
C           1.57957898876318    0.01545280301074   -1.11864328187874
O           2.78054228262003    0.13922291372567   -1.05918533361388
C           1.59561975976124   -2.41383545620423   -0.91269744172687
H           1.10777103546877    2.63728626730855   -3.37556749013075
H           2.24172673783525    4.83012982019384   -3.44443873355704
H           3.15995870735103    5.80728124693783   -1.37388323590452
H           2.94888528207507    4.59323341816759    0.76210388357707
H           1.80910772174412    2.40183230201034    0.82868497231278
H          -2.98259516254910   -0.63300283387511    0.57953854212746
H          -5.43772996533011   -0.74714122004351    0.32619925375320
H          -6.46719348134297   -0.36109621833120   -1.88144289891818
H          -5.04622950258606    0.13246461854861   -3.83601475200569
H          -2.59173497286135    0.24104741782846   -3.58031107707388
H           1.10130880339559   -3.37045265689852   -0.88486943349531
H           2.66658424768874   -2.37332266783507   -0.80565404167896
