24
 SCF done        -69.722177433451          0.000783167287
C           2.42131411298230   -1.34471618296819   -0.03223830046830
C           1.17707887119303   -0.77557701989144   -0.01123768348423
C          -0.07490064955323   -1.53444766807972   -0.02574594824842
O          -0.13715466142095   -2.74171267961192   -0.04931197760659
C          -1.27556079386144   -0.65890318901443   -0.00891084820190
C          -1.20960143392895    0.76285319360615    0.02902975232273
C          -2.46181961940624    1.32901266377196    0.03650880952175
S          -3.72706670618479    0.16757202928945   -0.00214417609807
C          -2.57492142964812   -1.10637238222927   -0.02869484665678
C          -3.05828254284910   -2.52496026887589   -0.07158484881667
F          -2.67836693154197   -3.23202597652178    0.99431950265733
F          -4.40343990863982   -2.56160646698286   -0.08939359370473
F          -2.65086862954455   -3.17550451866658   -1.16329716499910
C          -2.81299936162282    2.78604220514122    0.07292353480047
F          -2.34333674151098    3.45694628360860   -0.98044037613693
F          -4.14902402492754    2.94612432929522    0.05828314795625
F          -2.37538424045287    3.39461868584472    1.17761455035830
C           0.06733284313001    1.52345845582757    0.05548246362240
O           0.11710136748375    2.73077796927472    0.09695518891541
C           1.24354255375264    0.65198121828754    0.02543140639246
C           2.53531062925763    1.10319180135157    0.02967242302074
S           3.66910530131275   -0.17600164437520   -0.01092429162733
H           2.64552057595253   -2.39306103506289   -0.06039494928684
H           2.85656142002853    2.12607019698086    0.05358822576846
