20
 SCF done        -35.208016846758          0.000355924099
C          -1.26288001813541   -1.17325760304912   -0.00373817125221
C           0.00829272161702   -0.73756212066809   -0.00335738077782
C           0.01271847765719    0.73508214560074   -0.00134507872630
N          -1.27730133846254    1.15217179352427   -0.00051832052363
C          -2.12535557634552    0.02827304928268   -0.00184424084123
O          -3.32829407631371    0.10722199825949   -0.00152736597363
C          -1.76251598865941    2.50773508268861    0.00129709130005
C           1.28571410147230    1.16764673139771   -0.00100799919970
C           2.14648133693156   -0.03361123110521   -0.00285203462776
O           3.34987187939124   -0.11227192977491   -0.00330880593134
N           1.29860137548809   -1.15708860588658   -0.00419927714606
C           1.77095311276551   -2.51457798381376   -0.00619184687293
H          -1.65676132126179   -2.16946605229163   -0.00505062745641
H          -0.91482508184953    3.18805960628198    0.00225175891598
H          -2.37631172146068    2.68409090632063    0.88664253195779
H          -2.37626592976322    2.68652734174454   -0.88359484334843
H           1.68523016975618    2.16174380551695    0.00026560782031
H           2.85980787353861   -2.47888907797605   -0.00791609823023
H           1.42202238774506   -3.04248816677676   -0.89573785336531
H           1.42497761588904   -3.04418968927550    0.88351295427886
