26
 SCF done        -48.797986816435          0.000611211844
C           0.51747901394252    1.87094615370713   -0.00413335800965
C           1.85622728109221    1.51539099935571   -0.00592625523341
C           2.24101643185729    0.18081370756513   -0.00494489846157
C           1.29703636352095   -0.83288312192487   -0.00262240369443
C          -0.04914187131283   -0.49306518292540   -0.00106001786775
C          -0.44118739828531    0.86663843588091   -0.00144568233613
C          -1.88998083030129    0.94665313648303    0.00141454711631
C          -2.63559587486836    2.08903438389546    0.00304301663554
C          -2.09222770603365    3.39482067158500    0.00171302717220
N          -1.72337776183786    4.48098438297663    0.00083357075677
C          -4.04729387483744    2.15875397250983    0.00328544433430
N          -5.18484552339345    2.30769538709648    0.00269504472391
C          -2.40083474784104   -0.43472649007562    0.00245864293192
C          -1.23291440789380   -1.33214979796550    0.00171264935623
C          -1.25600754732730   -2.69608273671708    0.00296156879535
C          -2.41357249548347   -3.50728565523415    0.00654988686497
N          -3.29544789237632   -4.24111966615469    0.00958079353223
C          -0.10099084734488   -3.51221633735668    0.00020056982433
N           0.78961592618901   -4.23480505014646   -0.00181435693348
C          -3.68616884286869   -0.80549050821530    0.00495344111410
H           0.23678192783237    2.91096469699299   -0.00475638920312
H           2.60881493625605    2.28878262013457   -0.00811473107398
H           3.28984089921042   -0.07312816146462   -0.00611346269726
H           1.61298039643347   -1.86277815477247   -0.00188022871193
H          -4.48568335048357   -0.08677235840409    0.00532189244475
H          -3.97963220384503   -1.83970532682583    0.00589768861999
