26
 SCF done        -39.609874647580          0.000326753273
N          -0.01250144544737   -1.31752905316801   -0.00176172049587
C          -1.24997944342969   -0.66837330023780   -0.00113889640295
C          -1.37522335690541    0.72898392697607   -0.00144919248929
S          -0.00445932883025    1.84377806692567   -0.00297319566096
C           1.36490279322839    0.73119360051612   -0.00166258985241
C           2.60868770418641    1.34061546351763   -0.00118765488011
C           3.77050896322964    0.59146568651844   -0.00066184387542
C           3.65989311885559   -0.78334802603155   -0.00054754018742
C           2.41591289539953   -1.39329355160515   -0.00081330244394
C           1.22265079044808   -0.66139173443403   -0.00139409425519
C          -2.60968612960560    1.35796411663644   -0.00079801318538
C          -3.78495790388417    0.63162316021234   -0.00001691153975
C          -3.69416848117105   -0.74447018910659    0.00021109004307
C          -2.46005115319489   -1.37215315591537   -0.00023773585274
C           0.06208202773654   -2.76320413788847   -0.00155891938697
H           2.64640704069382    2.41959231778966   -0.00134307938160
H           4.73383598877243    1.07589881871105   -0.00039204090397
H           4.54379709283090   -1.40331843960219   -0.00024281375801
H           2.40693488614999   -2.46829474490303   -0.00059359347306
H          -2.62772923181365    2.43755279208118   -0.00102161320800
H          -4.74008737104350    1.13155131467741    0.00037839181871
H          -4.58625319543920   -1.35253249937751    0.00075059876378
H          -2.48413475923587   -2.44833345016686    0.00014051296012
H          -0.91998511639982   -3.21414852623398   -0.00258395911052
H           0.58580262903167   -3.11600866737817    0.89110816004036
H           0.58747098583751   -3.11603978851327   -0.89321004328246
