23
 SCF done        -35.130480373795          0.000710815777
C          -1.32951914185423    0.66661464562115   -0.52135962287374
C          -0.16381402433313    1.31666358520389   -0.24443547645928
C           0.88486569128663    0.41676839370141    0.00106648428639
C           0.48431773035670   -0.90383055942308   -0.09797716506382
S          -1.18033733379739   -1.05637061320397   -0.49226182925003
C           1.60312243504656   -1.74696674331743    0.16263517872327
C           2.70907543655228   -0.95770605435489    0.42412991403951
C           2.35328637910226    0.50913523328951    0.34652253080015
C           2.56584099209390    1.20503120080523    1.69385765508680
C           3.14116616369902    1.21872740586436   -0.75805284716517
C           3.85881786859325   -1.71597354993527    0.69440747569960
C           3.60467121223408   -3.05382577076831    0.63262920071971
S           1.96039016763681   -3.42482756783567    0.24481879204129
H          -2.28649483939055    1.09392059845837   -0.74644485845577
H          -0.07586466150080    2.38813243919773   -0.22132463390869
H           2.20717846851413    2.23016512353183    1.64643470160459
H           3.62269051604888    1.21423032764690    1.94846618310784
H           2.02303314075955    0.68194983692526    2.47767824119815
H           2.98091489297163    0.72247605503092   -1.71263751092374
H           4.20437830962544    1.20178435365961   -0.53016088229588
H           2.81629876834793    2.25297703455009   -0.84369576872158
H           4.82716652647402   -1.30834909064548    0.92363952833986
H           4.28801530153302   -3.86393628400224    0.79314470947047
