37
 SCF done        -52.270780222709          0.000295317748
C          -0.79921425452068    0.86620850301967   -0.70211210347311
C           0.57305323303179    0.93921242776070   -0.83981150059599
C           1.39956390299895    0.08080292979008   -0.11442811096445
C           0.81786131269893   -0.85137548054519    0.74509430525463
C          -0.55579163374575   -0.92169722410201    0.86984520103229
C          -1.37155446512534   -0.06397706830840    0.15016547135613
N           2.78967002440293    0.14976209166411   -0.24946323136279
C           3.42072951658027    1.38580664510211   -0.41832774202368
C           2.94980376063056    2.51889602297861    0.24564454462138
C           3.57656440816736    3.73764311058875    0.07431868197104
C           4.68385839475790    3.84875962513718   -0.75072362513761
C           5.15868968691198    2.72601043330474   -1.40889724399891
C           4.53398686421731    1.50447845532366   -1.25068984627706
C           3.55209548044331   -1.02535964353709   -0.22033417441684
C           3.08107162591311   -2.19250150624818   -0.81896900400724
C           3.83501900705158   -3.34854150975158   -0.78250931593263
C           5.07766628401218   -3.37813011828688   -0.16130248350736
C           5.54365134054749   -2.20988636214850    0.43026752192097
C           4.79556096412109   -1.04999297876982    0.40919288846076
C           5.90476600061308   -4.62781065586040   -0.14985235988483
H          -1.42706331881494    1.53526037566875   -1.27231038250699
H           1.01539967799978    1.65867816355789   -1.51342795972357
H           1.45154252542955   -1.51569472183965    1.31438091625098
H          -0.99236797403113   -1.64669206218744    1.54129928422082
H          -2.44471061060107   -0.12015351573842    0.25245368286485
H           2.09280164819495    2.43424385094665    0.89788507984607
H           3.20175400762938    4.60609195101815    0.59589256510969
H           5.17265969518898    4.80247643157282   -0.87977320675351
H           6.01827730779526    2.80329094912754   -2.05863011975802
H           4.90117937783463    0.63308392061936   -1.77302658968110
H           2.12049311520692   -2.18645851884964   -1.31324606745841
H           3.45326200485879   -4.24350344776586   -1.25307722969848
H           6.50479224827893   -2.21055134973486    0.92466389968924
H           5.16917471978841   -0.15433607645821    0.88380323078078
H           5.27340076603410   -5.51171880374815   -0.20313807483497
H           6.51306821526077   -4.68152469790301    0.75033722309091
H           6.57576514023880   -4.64042014539777   -1.00986412447311
