15
 SCF done        -28.743007740258          0.000338452713
C           0.98663460785491    1.48478382087538    0.00271630323114
C          -0.11345877848432    0.68945083191758    0.00232733612528
C           0.18977421141579   -0.71005849100707   -0.00047451199260
C          -1.01474461626520   -1.47892812086931   -0.00069295896347
C          -2.15444643391829   -0.75300874514785    0.00171646404866
S          -1.83196736123793    0.98066303281272    0.00448570967637
C          -3.55312662538994   -1.25094024195213    0.00206024904805
F          -1.00566851643236   -2.82639641367209   -0.00305915122930
C           1.53365973712237   -0.94639141934726   -0.00217672026370
S           2.41935023656898    0.52693829029093   -0.00036074595520
H           1.05198608565151    2.55290939169691    0.00458418855354
H          -3.55588352622840   -2.33860536567243    0.00225450093045
H          -4.08501608136574   -0.89259075941978   -0.87895028976460
H          -4.08473545859637   -0.89216112996315    0.88303739055092
H           2.04976251930500   -1.88443468054245   -0.00436776399555
