16
 SCF done        -27.940099960599          0.000728587728
C          -2.46841915604809    0.11198004026145   -0.00113220772919
C          -1.58015301413992    1.12607353584060    0.00041739740100
C          -0.22738138067823    0.66972038621759    0.00105204714240
C           0.95052025604098    1.41156521686019    0.00251267487935
C           2.16729934171271    0.74408936917832    0.00274987485997
C           2.22562569846523   -0.66081903309674    0.00165289380684
C           1.06849900806936   -1.40521161944997    0.00019177376549
C          -0.15073005730435   -0.73961536107111   -0.00015480588027
S          -1.73268230209569   -1.45709776504706   -0.00196582839094
C           3.37129137823509    1.48529867782676    0.00374185283401
N           4.34742919374631    2.08693710332021    0.00445941223865
H          -3.53943310839670    0.17212429981301   -0.00183706472229
H          -1.85218024700538    2.16624632462414    0.00115201682434
H           0.91735259456251    2.49095483994005    0.00343353633347
H           3.18984437439362   -1.14599997712398    0.00192479640534
H           1.10160742044254   -2.48353603809347   -0.00062836976815
