10
 SCF done        -16.422850596182          0.000800803299
C          -0.75015108746597    1.15077277664604    0.01350765633268
C           0.63707198050213    1.17630730826670    0.03355391411894
N           1.36006078406733    0.06771127760072    0.06234645685364
C           0.69449966269963   -1.07259298173246    0.07117457268520
N          -0.61776074210948   -1.21760670414928    0.05418504073004
C          -1.33699555356078   -0.10657198303639    0.02540787000229
H          -1.33718386025881    2.05423445656846   -0.00992268216442
H           1.19496611718011    2.10444020445492    0.02661100485012
H           1.28426093165888   -1.98025524723638    0.09470932280807
H          -2.41165823271304   -0.23937910738233    0.01172684378343
