13
 SCF done        -24.703232192948          0.000178170544
C          -0.90880911408257   -1.45205335587078   -0.00056352111920
C          -2.06671593455585   -0.73475780089978   -0.00076957058159
C          -2.08260607899466    0.68566537253366   -0.00017451957008
C          -0.94103568420386    1.42868456006950    0.00064533312181
C           0.27886759339410    0.72423119469107    0.00088398040574
C           0.29502951593917   -0.72048621164193    0.00027764499115
N           1.56115248871970   -1.09599811391286    0.00065961224248
O           2.27829403794412    0.02414908178997    0.00152167126666
N           1.53627307830467    1.12797316687099    0.00160260760678
H          -0.88756635411447   -2.52917262471320   -0.00102358230929
H          -3.01496992834339   -1.25133096701740   -0.00142534395521
H          -3.04217905227836    1.18089620590013   -0.00040149577531
H          -0.94389456772862    2.50600949220062    0.00109718367606
