28
 SCF done        -47.020724591046          0.000606588263
C          -0.85450759668822   -1.44636467688081   -0.00097429337552
C          -0.00381711924981   -0.34657281293301   -0.01053828965315
C          -0.49785379778724    0.96718617372175    0.50366841433674
C           1.30987449047797   -0.46475435176473   -0.49649948633929
C           2.22245608155016    0.71834276660854   -0.50285554736563
C           1.75955780472718   -1.69176468139927   -0.97073493479018
C           0.91078613149441   -2.78125013285228   -0.95692552744146
C          -0.40615660421846   -2.67174935407381   -0.47174619603244
C          -1.07143874134119   -3.96179924150432   -0.56663724347289
C          -2.35447132956709   -4.24374990949379   -0.19692552914276
C          -3.25254394353964   -3.29704093723552    0.34373960700675
N          -4.02853077714858   -2.57600086149680    0.78502230674562
C          -2.95657900964756   -5.51708873464953   -0.30211369049570
N          -3.50418774367797   -6.52369667787798   -0.35796149365285
C          -0.10642350006049   -4.90646713874034   -1.13405794125176
C           1.16876458023258   -4.15976568592348   -1.39554413426966
O           2.18068939261105   -4.62091125098801   -1.86763069291172
C          -0.22400175329432   -6.20693633299193   -1.40615624999999
H          -1.85804193562024   -1.33125194129273    0.37653333819278
H          -1.52638762785278    0.88685408497399    0.84396533521509
H          -0.44716896862408    1.72654397737494   -0.27586457825409
H           0.11865479313129    1.30815643592368    1.33467189465473
H           1.79773390792240    1.52718776492823   -1.09626584814168
H           3.19176631632390    0.45499195658173   -0.91662278414033
H           2.36641760529826    1.09514140674281    0.50928351903561
H           2.76460866331308   -1.80512713976806   -1.34864993456094
H          -1.11589566952060   -6.78174898314353   -1.23160710750314
H           0.62554635075778   -6.72211372184516   -1.82655291239644
