18
 SCF done        -33.667089557727          0.000754362665
C          -0.99522485110434    0.12164356545058    0.39239774179967
C          -0.14643833222537    1.12406137149258    0.04877442103857
O           0.96280722468673    0.63380943139829   -0.53388609277026
C           0.84511110019391   -0.69287009701826   -0.55240163613969
C          -0.35089506376281   -1.08711593932442   -0.00608902735751
C          -0.76510909999885   -2.48945076930353    0.14208770575142
O           0.05726775489967   -3.38512807729603    0.22572269706562
C          -2.19549374297631   -2.79211845668331    0.16396626100899
C          -2.73098604597318   -4.02066965620076    0.46880515842582
C          -4.12910525298781   -4.05943600463125    0.35457041743797
C          -4.64821655543365   -2.86729116207549   -0.05354246055024
S          -3.44447209092488   -1.67491266195284   -0.29064581851384
H          -1.93618835621130    0.22434023033816    0.89077661980436
H          -0.21366095020875    2.18781637360688    0.16172093529498
H           1.63583788115972   -1.27085798615936   -0.98797852153282
H          -2.11687656677723   -4.85064044934639    0.76835562613472
H          -4.72518447406928   -4.93084113536611    0.55820959579895
H          -5.67617257828666   -2.61770857692855   -0.22935362269663
