14
 SCF done        -23.701517474765          0.000662790916
C          -0.91747890461714    1.36939628660562    0.00251679270562
C           0.26153879276211    0.62904805002744    0.00175580824495
C           0.19736085253778   -0.78347277334739    0.00069166518828
C          -1.01644261294666   -1.44966896602854    0.00038803973462
C          -2.17197127012920   -0.69367119909573    0.00115737495342
C          -2.12194258613443    0.69964309915953    0.00220938390788
S           1.80959271659573   -1.43687072178903   -0.00007738379838
C           2.40490106924742    0.21111577718621    0.00108006279714
N           1.53051532807252    1.13487827929539    0.00192806188423
H          -0.86377476398557    2.44621325472922    0.00332800366895
H          -1.05202376972629   -2.52796215673348   -0.00042691428165
H          -3.13036583081875   -1.19061338735130    0.00094112941751
H          -3.04479248884760    1.25995589037792    0.00279246381771
H           3.46236346799008    0.39065856696413    0.00103551175971
