13
 SCF done        -23.888568006529          0.000281372279
C          -0.93181234049065   -1.43556930677814    0.00040043240634
C          -2.10043517903604   -0.73231659442281    0.00020612037363
C          -2.11553558991136    0.68177429131986    0.00009807311430
C          -0.96219688467677    1.40982166608387    0.00018294240103
C           0.26902957126359    0.72216238978611    0.00038751651947
C           0.28444873228164   -0.72177466347744    0.00049780883605
N           1.49954131877263   -1.25927900150584    0.00065930868115
Se          2.68575413941764    0.02591899566606    0.00098103629923
N           1.47236670197431    1.28549182206769    0.00046485098927
H          -0.90802251702963   -2.51375713230867    0.00047116691650
H          -3.04367874699635   -1.25811649121358    0.00010961755532
H          -3.06979205224549    1.18731243240190   -0.00007748481536
H          -0.96143715332353    2.48827159238099    0.00008861072307
