19
 SCF done        -38.611198648284          0.000739560680
C           1.35445497694788   -1.33527392681543   -0.00129029264647
O           1.75884029796674   -2.47218033172761   -0.00171879728425
C          -0.01146793774721   -0.83191510121758    0.00059113801279
C          -0.04207112393024    0.56125512797728    0.00209320608394
C          -1.35489614373358    1.07396628138661    0.00336311112306
C          -2.27099573558340    0.06479439243703    0.00255607423240
S          -1.57782239029975   -1.51397143390726    0.00070008598325
C           1.30640182766571    1.07828431240934    0.00130718103967
C           1.65755454819604    2.39637821279502    0.00480407420112
C           0.69015509283448    3.42613166794252    0.01124023536693
N          -0.08280216494022    4.27305876507963    0.01655664663774
C           2.98391370297814    2.87816181319381    0.00580186500427
N           4.04010813286938    3.32572834031910    0.00635691958750
C           2.20042857213649   -0.08669637533992   -0.00165510921658
C           3.53172991075623   -0.14231717243652   -0.00598439702572
H          -1.61136942946687    2.11694076983754    0.00439681548154
H          -3.33936651347054    0.16071437196777    0.00287693132742
H           4.16443300466653    0.72773959818978   -0.00888902009861
H           4.01107137215418   -1.10825931209115   -0.01011666781001
