17
 SCF done        -34.088336711618          0.000254451741
C           0.24634668054881   -1.45911159045466   -0.06022720311984
C          -0.93974909263600   -0.73406310346505   -0.03652098727343
C          -0.93201016500469    0.70443679669026    0.06843924050126
N          -2.10493522747927    1.39209269773683    0.08862847610335
C          -3.20547992001064    0.71064756148505    0.00975152814250
C          -3.21310934967364   -0.70735711324564   -0.09370842161935
N          -2.11998246249442   -1.40477392774191   -0.11544120585046
C           0.26179468528873    1.41251187013779    0.14930254853377
C           1.44781302244135    0.69227651933509    0.12439196750798
C           1.44002251506940   -0.75562341822103    0.01875297055360
N           2.68546430435196   -1.25641638569193    0.01032712609060
S           3.72338619644329   -0.04758330918136    0.12151131175393
N           2.69854921615878    1.17563168675700    0.18780328004717
H           0.22708572821750   -2.53325916443588   -0.13858994273994
H          -4.13031596204448    1.27210140598763    0.02624119059788
H          -4.14391199498503   -1.25533114753646   -0.15815857013889
H           0.25409182580836    2.48680062184429    0.22772669090985
