18
 SCF done        -40.995786669707          0.000866555087
C          -2.44055548357273   -0.60286848971818   -0.00003277067399
C          -1.32905230631000   -1.59538723040453   -0.00121120691522
O          -1.42937491874224   -2.79413135564787   -0.00145141417192
C          -0.08205143352480   -0.78217700816992   -0.00066953459107
C          -0.39616782825363    0.58638078945712   -0.00043087334125
C          -1.87292613371088    0.77469960699602   -0.00079337347857
O          -2.48528519709550    1.81017189193465   -0.00064389325511
C           0.62240720273355    1.52573452890733    0.00009934241508
C           1.95192955621797    1.11428925874683    0.00037183423036
C           2.26114364506997   -0.23277375382122    0.00013766295623
C           1.24430891500613   -1.18295873052121   -0.00036852112161
F           1.57279939021124   -2.47503950873774   -0.00056780409960
F           0.35418812583711    2.83164783438341    0.00036430137621
C          -3.73861132797426   -0.90104775573906    0.00101654287526
H           2.73085003973866    1.86071112129124    0.00082142439621
H           3.28767930062729   -0.56458852045842    0.00039152322969
H          -4.06956169730339   -1.92727495454811   -0.00138539482362
H          -4.48471984895448   -0.12270772395034   -0.00098784500710
