17
 SCF done        -27.340240004682          0.000536862732
C          -0.87924611120146   -1.44053343746572   -0.00202343430352
C          -2.05631469359602   -0.75046935588545   -0.00203972922223
C          -2.01161169365967    0.66076154715823   -0.00181638768403
N          -0.90316332590480    1.34860335739568   -0.00150148996839
C           0.24155441833859    0.68890625032712   -0.00144612342732
N           1.46353980499567    1.16380656381219   -0.00116685901124
C           2.28119453690201    0.09484544790364   -0.00126860403921
C           1.58450442136107   -1.09539857012147   -0.00165247063620
N           0.27242787889303   -0.73994549202380   -0.00174056637546
C           2.04792431761863   -2.50636511434732   -0.00194339146024
H          -0.81752947296829   -2.52016419369985   -0.00223852863401
H          -2.99850845047985   -1.27139610098749   -0.00225374141940
H          -2.92576380156775    1.23752120887723   -0.00167573701361
H           3.34577782864567    0.22622033207894   -0.00108753790777
H           3.13366638206822   -2.53117544535180   -0.00200072169723
H           1.68653013353980   -3.03393290662844   -0.88594942639419
H           1.68661782701515   -3.03427409104168    0.88189474919404
