20
 SCF done        -37.151965173747          0.000762583719
C           0.69826271558874    1.29942563880194    0.52604108181765
O           1.25816104762239    2.37128719146585    0.49030996942940
N          -0.67549281403379    1.19989009125978    0.59900072697991
C          -1.46092808009417    2.42418369617686    0.63576381473469
C          -1.40488589780174    0.02463726265268    0.64799897552080
O          -2.60895199174946    0.04397717929242    0.71855427421625
N          -0.68941164427516   -1.15959415599819    0.61289925163405
C          -1.43746079515341   -2.40643254452101    0.66178212653833
C           0.68303162522910   -1.26841032943768    0.54147105236655
O           1.22109663836990   -2.35134885842053    0.51883329452837
C           1.42574885653970    0.01053006295549    0.49761409982092
C           2.76069684254512    0.00215771368021    0.43416399787779
H          -0.76844039971380    3.26218643813858    0.63771105831238
H          -2.07820401049003    2.43650433397801    1.53302526914819
H          -2.11084242273557    2.47173900658755   -0.23722406506942
H          -2.49488181901964   -2.16711411250225    0.73374664053221
H          -1.11759969705227   -2.98703768069033    1.52646256923514
H          -1.23834595185367   -2.98493034333822   -0.23976756572455
H           3.30000061556222   -0.93016609255170    0.41361792099788
H           3.31192718251556    0.92708550247053    0.40300550710349
