18
 SCF done        -35.429507951215          0.000424842028
C          -1.43613329002916    0.16623723878989   -0.18192879563350
C          -0.54533836721604    1.08277043078510   -0.54783705926401
C           0.87247075397528    0.88286757847427   -0.32361799258721
C           1.34756727090351   -0.28745812161551    0.09301227551913
C           0.45284721161046   -1.47861326179472    0.32442834342172
C          -1.02866337833580   -1.08953005284733    0.54582152756914
N          -1.97303077875531   -2.12266675638158    0.18697515470494
C          -1.63002280316337   -2.99142413650578   -0.65337499986362
C          -0.27608226843445   -3.04974168551155   -1.23674143940141
N           0.68178613564105   -2.36669757518761   -0.79845567512916
F          -0.08374448381463   -3.85789498485494   -2.27613231068201
F          -2.50515251337382   -3.92216308726992   -1.02302098593868
H          -2.49524215338207    0.27849590683392   -0.35194554702389
H          -0.85816476803162    1.99230968271329   -1.03698631959637
H           1.53716818065675    1.70873564713343   -0.52541576955378
H           2.40397283960218   -0.47466950637842    0.19543871437905
H           0.81920950726046   -2.02907543351334    1.20224396681390
H          -1.19467709511341   -0.90621188286921    1.61754691226579
