20
 SCF done        -33.618628066725          0.000490969658
C          -1.28149703033115    1.35875694650020    0.02247670568935
C          -0.02112510252437    0.75766851686125    0.00326478921949
C           0.06271653297047   -0.63688987935843   -0.02873245004714
C          -1.09656557699041   -1.41281630184145   -0.03866587537566
C          -2.32862207413590   -0.79643865216871   -0.01870940271632
C          -2.42441299575134    0.59224515801536    0.01138565712071
O           1.25296713771958   -1.29302116623084   -0.05210774473156
C           2.39278064435955   -0.57713973642061   -0.04361602773140
C           3.61539887529002   -1.44025525224633   -0.07726964500607
C           2.42120525602210    0.76910310569153   -0.01053692139374
C           1.20999132306149    1.57223873409566    0.01678480852966
O           1.20230414233997    2.79138269620936    0.04402577792366
H          -1.31957181693734    2.43741434630397    0.04584494340244
H          -1.00290130320464   -2.48727203498093   -0.06215415437614
H          -3.22526144965172   -1.39775327307250   -0.02661891348555
H          -3.39523679557058    1.06339293799205    0.02557931468052
H           3.32326091188103   -2.48680125892966   -0.07061438690676
H           4.24615834257598   -1.23741041899467    0.78538117891362
H           4.19538784960482   -1.23695122906790   -0.97518671376886
H           3.36647312927244    1.28729676164265   -0.00490093994025
