13
 SCF done        -28.192182626057          0.000485523594
C          -0.96981906721633    1.41325035110169   -0.00081940689911
C          -2.12240048391075    0.68108951244712   -0.00063856239606
C          -2.07620706926720   -0.72814332454738   -0.00010357471247
F          -3.25522973725146   -1.38006073302987    0.00004694429117
C          -0.91804967191881   -1.45212424987950    0.00026477370738
C           0.27923172111553   -0.71935697706910    0.00008774118830
C           0.25432816704965    0.72195026685116   -0.00045772934658
N           1.48344578156763    1.24074385120513   -0.00054756886140
S           2.54752805148205    0.04007491983029   -0.00001755664430
N           1.52452166607492   -1.19742762583224    0.00037189934132
H          -0.97617736151923    2.49070702325332   -0.00122275925669
H          -3.09019704500587    1.15752999639413   -0.00089548201743
H          -0.91498495120012   -2.52894301072475    0.00067128160587
