20
 SCF done        -33.630840152274          0.000798499351
C          -2.40545783197165   -0.76207768369601   -0.00416458085452
C          -2.45663727122255    0.63079131088670   -0.03548933453579
C          -1.29899521282914    1.37533625684886   -0.04249335336401
C          -0.05227055287911    0.74109986928512   -0.01858604734565
C          -0.00648719951152   -0.66329778806360    0.01589668829564
C          -1.18897853039643   -1.40577892300345    0.02243557709430
C           1.28004162045726   -1.35636269382052    0.04360047259034
O           1.42947267094061   -2.55183942718022    0.08106766146725
O           2.40338601804826   -0.57081204569908    0.02334711919712
C           2.35270069278951    0.77910233181324   -0.01399989246069
C           3.70734568088817    1.41353726779975   -0.02994862132167
C           1.18907253695711    1.45633022582274   -0.03192976807815
H          -3.32174158860819   -1.33240989544632   -0.00142134554987
H          -3.41490755055020    1.12885602342517   -0.05574067226144
H          -1.33906437521470    2.45439476787075   -0.06732728071517
H          -1.11630043705866   -2.48220060956293    0.04778709189662
H           4.46651452476542    0.63959863784617   -0.09741341739567
H           3.86753384582682    1.98881815642832    0.88020418154937
H           3.80194242865400    2.08728067626234   -0.87883174913838
H           1.18577053091498    2.53303354218298   -0.05992272906964
