17
 SCF done        -31.561452450007          0.000601031135
C           0.74628051196935    1.52028261329072   -0.00006064110438
C           0.65811177183423    3.00200254475970    0.00167645841684
N           1.91124889577957    0.94577754413172   -0.00147489018482
N           2.08109122486898   -0.37369443257725   -0.00312904199139
C           1.09958647417938   -1.22449283369681   -0.00353563728514
C          -0.23926623800787   -0.72653993298127   -0.00206743751123
C          -0.42282793867595    0.69950730264533   -0.00024658012283
N          -1.72129514463807    0.92821854317144    0.00091936717324
O          -2.30213563053369   -0.26723826128120   -0.00004570838998
N          -1.43748552734337   -1.27662907443787   -0.00188592545746
C           1.38952087992777   -2.68024138034988   -0.00552883799419
H           1.65728178147274    3.42626192142348    0.00219706914147
H           0.10997720205159    3.33776533926740    0.88041830404044
H           0.11012811437919    3.33979623872434   -0.87639051205148
H           2.46356067835329   -2.83764527285339   -0.00518586047248
H           0.94517081483337   -3.14347982280221   -0.88493888972908
H           0.94405212954949   -3.14618103643424    0.87186876352248
