32
 SCF done        -56.613922582942          0.000425901142
C           1.25243468165217    0.32186292049099    0.14484178226204
C           0.60457804348483    1.34150151767893   -0.65820682080427
C           0.67414851784367    1.36837862078792   -2.05495117048496
C           0.03775107751345    2.35708090194868   -2.77162943639083
C          -0.67524363442774    3.36413990329222   -2.12091822814445
C          -0.76536461432351    3.33654375548870   -0.73012500731555
C          -0.14308767718108    2.33379185093457   -0.01603391657867
C          -1.33565011426300    4.40024758597181   -2.96386409501336
O          -1.60641565699060    4.22379316723458   -4.11994653073034
O          -1.61246383110721    5.57552554566199   -2.36738198326553
C           2.23874498392585   -0.48791307959925   -0.26639205471158
C           2.89626898314769   -1.49774756625872    0.54161278513593
C           4.14554180768052   -1.98315178715087    0.13976800485055
C           4.81045793999484   -2.93103981081838    0.88531701534572
C           4.23511987704729   -3.45211100321851    2.04387381208545
C           2.98645166855225   -2.98088446437404    2.44813711640849
C           2.33246776336259   -2.01550034093173    1.71125381149644
C           5.00968362709951   -4.47591422051356    2.79997396740522
O           6.19915666207168   -4.59938387073818    2.69620519139867
O           4.30718471924010   -5.28450561546533    3.61612049101812
H           0.90997326175934    0.26775190666593    1.16997686247876
H           1.21288644685670    0.59642207351928   -2.58167786617185
H           0.07820902202868    2.37625305035231   -3.85008779260848
H          -1.35158675127277    4.07052445402717   -0.19163830175423
H          -0.22766127059292    2.31758178632213    1.06117393615393
H          -1.29944223309239    5.61005228536006   -1.45398530402584
H           2.63490763585983   -0.38111142535714   -1.26734893504312
H           4.59859640347230   -1.59506136686747   -0.76079166256606
H           5.78185633954434   -3.29514788706433    0.58759135923453
H           2.52230609292604   -3.33767591567593    3.35913620547188
H           1.36314583040008   -1.67195256014981    2.03807452220241
H           3.35619439779153   -5.12124041155485    3.57062224266169
