11
 SCF done        -20.010188302332          0.000729740617
C           1.00210509690924   -0.66706682080971   -0.00823028609292
C           0.96417576472333    0.66463676022479    0.09685726784592
C          -0.36064412451328    1.22443540356563    0.25858236785003
S          -1.56347056699065   -0.07225221750890    0.26890802509084
C          -0.29851506100878   -1.33320028217819    0.05707566491247
O          -0.54443461531867   -2.50343833594908   -0.00956579192477
C          -0.66165401988868    2.51739538818815    0.38377018862242
H           1.88402261994217   -1.27059756407684   -0.13354613993011
H           1.82216557180922    1.31488313853596    0.06921953209574
H           0.10944873520901    3.26908095603039    0.37233596540801
H          -1.67666940087291    2.85138357397779    0.50225320612237
