11
 SCF done        -24.474906751066          0.000588900988
C          -0.93741742808712   -1.37076911523897    0.00058688977941
N          -2.04673561270728   -0.69072322888442   -0.00027882256596
N          -2.06525932972711    0.62937093243329   -0.00134255964836
C          -0.97545908697299    1.34027555568862   -0.00159729911505
C           0.29239597769838    0.71946461129263   -0.00073383312780
C           0.31251935493028   -0.71462766165741    0.00042168747138
N           1.55505079933865   -1.19925781629011    0.00116629027541
S           2.57938802525653    0.03436933818005    0.00048052314560
N           1.52084005209982    1.23876833329791   -0.00079689351308
H          -1.01701510272719   -2.44751951272696    0.00142429019539
H          -1.08523764910196    2.41436856390536   -0.00249027289695
