32
 SCF done        -57.914740137645          0.000862001058
C          -2.60267767819100   -0.30687817337881   -0.04666696434040
C          -1.54622581158670   -1.21612714690277   -0.61088528095405
O          -1.73716998083299   -2.28649768060700   -1.13547198438959
C          -0.27000667585127   -0.53868150382271   -0.34293331199094
C          -0.52467014115470    0.73559705378235    0.20012155235892
C          -1.96537266745136    0.98796553024319    0.21929151240518
C          -2.56195267882704    2.21810382997887    0.26276992581946
C          -1.87668567894071    3.49280461554211   -0.08920319726305
O          -0.70967525447583    3.67580602010595   -0.35659324392959
C          -2.93960351929832    4.52129765402798   -0.16133454037979
C          -4.17231846959002    3.95619547677587    0.17122362693379
C          -3.99376553967500    2.52053604202736    0.48810164011807
O          -4.85501862746669    1.79649733460586    0.94117336624181
C          -5.32408365009659    4.72100582158256    0.18741761911570
C          -5.21854549107823    6.06503871639193   -0.14513307641235
C          -3.99290662553978    6.62589706863552   -0.48027199598199
C          -2.83537130193697    5.85932737145093   -0.49472146867463
C           0.53326819488690    1.48074113108589    0.70189907749733
C           1.82071952554769    0.98145719031853    0.56985893343774
C           2.06719284744239   -0.24494009553279   -0.03320237139723
C           1.01496409676036   -1.03203461063231   -0.47578211749394
C          -3.83871397122132   -0.76465214685361    0.15471710702387
H          -6.27199291065644    4.27596491072795    0.44788630929815
H          -6.10243881718613    6.68549840271950   -0.14313628429793
H          -3.94055455500403    7.67498243735371   -0.73118139423551
H          -1.87775397628278    6.28524560066357   -0.75183545121289
H           0.37126096873176    2.42271937300492    1.19645870248634
H           2.64958993814109    1.56170013751252    0.94710085936531
H           3.08297992368753   -0.59644388462471   -0.13581854589840
H           1.17776378549089   -2.00845675175938   -0.90578626261150
H          -4.06627217340571   -1.77302014829322   -0.15652934156800
H          -4.61328308493583   -0.19200957612946    0.63162660093078
