17
 SCF done        -39.670743086571          0.000780173557
C           3.42609936330100   -0.08941014205293   -0.01000843100247
C           2.53630313721218   -1.10277879212973   -0.01359251010282
C           1.18742711087315   -0.64280385994325   -0.00926331932016
C          -0.00850054688652   -1.34949305160845   -0.01089626765717
C          -1.18684193093494   -0.61309474214543   -0.00548199099790
C          -1.10461101724616    0.80315892864546    0.00133681458020
N           0.01458756886688    1.49011618209119    0.00299880828788
C           1.12424523414889    0.77893335549019   -0.00218998489660
S           2.70486377236481    1.48955340453167   -0.00112920537260
S          -2.67623781965281    1.55975941940011    0.00743331099010
C          -3.42759520801058   -0.01714657364307    0.00084020469360
C          -2.54717308924404   -1.04554963417102   -0.00553596872656
F          -2.89187268815310   -2.34012516936241   -0.01135658435320
F          -4.75228061469979   -0.10659997957299    0.00240517808322
H           4.49650569446618   -0.15870428931250   -0.01200711227018
H           2.80405198268565   -2.14368113015533   -0.01910767597034
H          -0.02880094909079   -2.42881392606151   -0.01615526596500
