12
 SCF done        -30.993098081769          0.000247587958
C          -0.30861960152725   -1.31635688375236   -0.00445929077776
C          -0.79238517013848   -2.62782674967822   -0.00484322047162
N          -1.18586818857246   -3.70479084323997   -0.00484083893722
C          -1.04632443413683   -0.15224751119502   -0.00001525167696
F          -2.37597907518329   -0.12351417233638    0.00475976216379
C          -0.24570653624137    1.00595452976102   -0.00115078922466
F          -0.74620708372218    2.24203046193037    0.00252356275608
C           1.10462595396246    0.73409381990245   -0.00644682388422
S           1.39372336465600   -0.97569299480018   -0.01012487931805
C           2.15258878353023    1.65789396021416   -0.00898069336129
C           3.05590325915503    2.45113382969029   -0.01112564583142
H           3.83558872821812    3.15298255350383   -0.01288589143668
