22
 SCF done        -44.725738003399          0.000193391247
C          -2.58284762312849   -0.40472214301959   -0.00193891180977
C          -1.47090023749861   -1.40941252122965   -0.00438860829579
O          -1.58878371730586   -2.60928319540991   -0.00648719019149
C          -0.22598084647035   -0.61547980003315   -0.00393262692158
C          -0.53717976205979    0.75822589801047   -0.00231468083354
C          -1.98283839198918    0.93205704608228   -0.00103192411061
C          -2.65733975987080    2.11768134134542    0.00073900560210
C          -2.03728727426430    3.38769282992007   -0.00131252022170
N          -1.59236310697221    4.44481145175972   -0.00381706661850
C          -4.06550272298574    2.23890757463354    0.00447703399562
N          -5.20000506780656    2.40699003109406    0.00804775035664
C           0.49518144892039    1.68978785146698   -0.00103643873145
C           1.80412063907821    1.23953209971387   -0.00113139557138
C           2.09326673762964   -0.12324704348839   -0.00259387296926
C           1.07712431015157   -1.07149723763558   -0.00415489831964
Cl          3.73488918924492   -0.63657718927816   -0.00217911771358
C          -3.86350738365809   -0.78025751142868   -0.00189837608040
H           0.29749526493029    2.74922791036889    0.00016280266098
H           2.61526079981538    1.95062520301265    0.00007014787350
H           1.28896533311936   -2.12901268208391   -0.00532338491995
H          -4.08993898493828   -1.83498767416467   -0.00340249683996
H          -4.69233884394148   -0.09498223963624   -0.00046323034027
