26
 SCF done        -78.244145238784          0.000151285781
C           1.03848700272923   -0.05745694035478    0.06534065084373
C           0.37783407951868   -1.32280911769269    0.33825677235986
C           0.90814400144843   -2.34501437540207    1.13390185136679
C           0.21699216820576   -3.52839688628556    1.36765801036702
C          -1.03842185829468   -3.72972003944714    0.80076711151116
C          -1.59713464571523   -2.72866061877200    0.00997401250327
C          -0.89545475230936   -1.54981479097079   -0.20275478650958
F          -1.45084531945897   -0.60679086083141   -0.96794960919526
F          -2.79927484152645   -2.90433601366531   -0.53743146142570
F          -1.69878031644799   -4.86417575333750    1.01579327248917
F           0.75698037166139   -4.47289693765963    2.13763399174251
F           2.09719425785899   -2.19395454398781    1.72321976573566
C           2.36121550669263    0.15307684634701    0.12008554648562
C           3.02390028530112    1.41388937908056   -0.16839813261883
C           2.42018465693915    2.67313748974088   -0.07385923178899
C           3.11611251435732    3.84462097745179   -0.34971301028850
C           4.45159356410045    3.79049656280255   -0.73902641113444
C           5.08334962751992    2.55309298199376   -0.83581069035717
C           4.37400060093969    1.39554146517359   -0.54573174909781
F           5.00083120351335    0.22098927396342   -0.64956937358990
F           6.36205032810252    2.48423692008287   -1.20433786818394
F           5.11799553295706    4.90901023909907   -1.01142198526565
F           2.50380515924331    5.02347487418005   -0.24024318031131
F           1.14871744537225    2.78428123870472    0.31989471881953
H           0.36776589751810    0.72963073582838   -0.24651997768469
H           3.03895752977143   -0.65695210604119    0.34628176322784
