20
 SCF done        -30.344700007857          0.000582149380
C          -0.77282121494472    1.17730353759603    0.11625027701742
C           0.59926757935579    1.27405244409169   -0.05506400082510
O           1.29973135388131    2.44269110371148   -0.16451927218295
C           0.59125133675261    3.65397149625651   -0.09518071695480
C           1.35379734995472    0.10044713305894   -0.12521013694746
C           0.74791447388115   -1.12858426062691   -0.02184099739409
C          -0.63421350109158   -1.22789527580798    0.15462364696662
C          -1.38526611179533   -0.06472876381107    0.21999738678677
O          -1.13495676081140   -2.49626315728504    0.25061193020058
C          -2.51799809736313   -2.65490342850800    0.44044144554467
H          -1.39186143351791    2.05898988296962    0.17268001044861
H           1.33835968531875    4.43960035042003   -0.19773524823419
H           0.07842892988820    3.76759431737220    0.86611508802239
H          -0.13822970727259    3.74229768577826   -0.90748834773054
H           2.42016998213877    0.18343993243072   -0.26111942642141
H           1.32518082958707   -2.03779862741982   -0.07399312327403
H          -2.45540672994557   -0.09769558352777    0.35241680313056
H          -2.68555804447058   -3.72882805189781    0.50660862876599
H          -3.08928733572998   -2.25197870149902   -0.40237949650089
H          -2.85542258381545   -2.17978203330215    1.36746554958181
