15
 SCF done        -24.244732921620          0.000171033748
C           2.09350256896035   -0.69939492438904    0.00022373389028
C           2.11497286615418    0.69694530847043   -0.00006445982748
C           0.95117203784567    1.43411492906509   -0.00000148273736
C          -0.26148039701574    0.74843597826221    0.00036183484385
C          -0.26554342877869   -0.66159348695528    0.00064995913291
C           0.90595097602895   -1.40283616337904    0.00058517053738
O          -1.53774549760060   -1.12422901951669    0.00097827718389
C          -2.33971000021630   -0.03363813329581    0.00089899979988
C          -1.64068183156001    1.12446176904617    0.00054471113645
H           3.02833761973970   -1.23937545604581    0.00016328579310
H           3.06829308064265    1.20447650119227   -0.00033864496502
H           0.97111515513302    2.51334090170750   -0.00022037249428
H           0.88064615841056   -2.48086958295568    0.00080891852681
H          -3.39627840979788   -0.22160378118124    0.00112837707711
H          -2.03915089794586    2.11821515997491    0.00042169210247
