9
 SCF done        -13.818274574949          0.000870936452
C          -1.26337976074866    0.09942088428124   -0.00236261467608
C          -0.38399428995109    1.13136298337884   -0.00006995147589
C           0.96223690715709    0.69540560097036   -0.00017473694731
C           1.06976637163666   -0.65613442290584   -0.00252648248260
S          -0.46844665993190   -1.42597575845166   -0.00468545888652
H          -2.33460597576716    0.13233021705335   -0.00285122366405
H          -0.67636874825960    2.16622314942270    0.00162883879832
H           1.80574064517196    1.36242921927954    0.00143965287537
H           1.95693151069271   -1.25742187302854   -0.00314802354124
