22
 SCF done        -44.253176401025          0.000191400486
C          -1.47296482835071   -1.40907143797817   -0.00109600988773
O          -1.58945683848892   -2.60871398639112   -0.00137230175455
C          -0.22753358333534   -0.61537560007575   -0.00192398550247
C          -0.53684091198866    0.75866842811696   -0.00202688248028
C           0.49507436063871    1.69075424505639   -0.00237892631499
C           1.80415472881208    1.23988176079345   -0.00231376732663
C           2.08662178610101   -0.12228972681058   -0.00201422817682
C           1.07516930287416   -1.07273652128662   -0.00192364470336
Br          3.89709609714591   -0.68982278481044   -0.00114219718875
C          -1.98344855164082    0.93290880677347   -0.00050372215864
C          -2.65604876326986    2.11917901852694    0.00086426724027
C          -2.03397870712790    3.38840373948651   -0.00202749602643
N          -1.58462804348367    4.44352910853134   -0.00513938160625
C          -4.06439597712342    2.24139185794009    0.00485317005045
N          -5.19877018221866    2.40920194713017    0.00855770402716
C          -2.58366291261532   -0.40351889475285   -0.00020822150643
C          -3.86452135232091   -0.77889043348062   -0.00061306476954
H           0.29920006690550    2.75040341280455   -0.00263707624760
H           2.61607117281244    1.95083283830061   -0.00238940827905
H           1.28729429939243   -2.13068381223108   -0.00167006142329
H          -4.69314968655070   -0.09337357867779   -0.00064472393264
H          -4.09111147616709   -1.83360838696643   -0.00112004203258
