15
 SCF done        -37.334234944541          0.000817449267
C           3.16370979118918   -0.41929646142354    0.00289567765348
C           2.63422904702539    0.83293541041340    0.00293140365923
F           3.37671674585562    1.94530070217097    0.00367925920578
C           1.22275131105879    0.83457802016022    0.00209512252587
C           0.70517035658147   -0.45836174979604    0.00143276353478
S           1.95292888383668   -1.65116198085338    0.00185031897809
C          -0.70021060699525   -0.45992710350096    0.00058880469584
C          -1.22058891472769    0.83189708726489    0.00062749307736
S          -0.00027636530764    2.06932532027443    0.00169972001322
C          -2.63204793505329    0.82723547004640   -0.00023215243800
F          -3.37694681847935    1.93797955533588   -0.00037807025732
C          -3.15882394301026   -0.42614701415031   -0.00090216507707
S          -1.94537798451361   -1.65539085026480   -0.00049006153988
H           4.20115789174809   -0.68468334427179    0.00343300230637
H          -4.19570145920814   -0.69375306140535   -0.00161111633775
