10
 SCF done        -21.070287036127          0.000271138113
C          -1.11473295023171    0.03311079306370    0.00142123129093
N          -0.28805808048796    1.04551186383430   -0.00278441520783
O           0.95800528143337    0.55761264014382   -0.00615031203862
C           0.91217640123241   -0.78873769094549   -0.00404828187749
C           2.16092876835767   -1.54438426116733   -0.00698455323843
O           2.22932613657188   -2.74430580698462   -0.00580697452651
C          -0.40800180698635   -1.18496441642349    0.00080097931849
H          -2.17276730191265    0.19897346794398    0.00467483857527
H           3.05552983970453   -0.89631966256120   -0.01157917533312
H          -0.78821628768117   -2.18406692690366    0.00348666303732
