9
 SCF done        -16.658516551077          0.000709519717
C          -0.68961002308348    1.07828645810194    0.07791608632468
N           0.62839538416731    1.24500662469151    0.02599922602842
C           1.33892692194562    0.13310061096562    0.02128182339109
C           0.69677495317085   -1.10623739804931    0.06900213301538
N          -0.62119388579303   -1.17695978512217    0.11906145760985
N          -1.31946936935455   -0.07814838741133    0.12358049331107
H          -1.30213260299048    1.96956942248734    0.08329595984567
H           2.41521823158949    0.23613205118823   -0.02047659467736
H           1.22895039034826   -2.04563959685183    0.06752941515119
