12
 SCF done        -29.570472977480          0.000617386391
C          -0.33260310061799    1.15513482675493    0.00003889617146
F          -0.66619827030205    2.43571625585700   -0.00455639142256
C           0.96013095422526    0.64954990851168    0.00355477153036
C           2.19026825702820    1.32888267762015    0.00329004156340
N           3.18275049887001    1.90067581615158    0.00283317003826
O           0.90434120132587   -0.69333991265582    0.00786112575854
C          -0.39261825215955   -1.05479026870412    0.00712997673969
C          -0.72624625325044   -2.47499727492491    0.01149391555004
O          -1.84656849201828   -2.90999619207803    0.01065979630082
C          -1.20750970719984    0.06097514049042    0.00225214992760
H           0.16711658869507   -3.12445076124007    0.01373785943809
H          -2.27766342459626    0.07673978421720    0.00068468840429
