14
 SCF done        -21.704921302859          0.000348407864
C          -0.72583320914821    1.02905215653116    0.05506576836332
N           0.58452194496886    1.19942559455529    0.10233374111916
C           1.31970904397402    0.09750398118639    0.06215100072371
C           0.75569394292184   -1.16314878405000   -0.02430540341863
C          -0.64102106058695   -1.23084773111101   -0.06843977088370
N          -1.37200485376877   -0.11323494953759   -0.02730471785264
C          -1.33499352957035   -2.50888106298428   -0.16009918960316
C          -2.65787500284395   -2.61061705874852   -0.20330499433555
H          -1.33159941983525    1.92640515200928    0.08739598267513
H           2.39231062900875    0.24161377311574    0.10104117417975
H           1.36184847016757   -2.05473448725682   -0.05653329129097
H          -0.70003067419206   -3.38445752902578   -0.19049642814529
H          -3.27096420119230   -1.72632974170580   -0.16927843096921
H          -3.15594207990320   -3.56255931297808   -0.26889544056193
