17
 SCF done        -39.676437329706          0.000656111839
S          -2.68760750939539    1.49753247618217   -0.00472588123608
C          -3.40759768410542   -0.09394069844756   -0.00108640241008
F          -4.73208418279125   -0.19256422780780   -0.00240747455918
C          -2.54052634004015   -1.12591889226312    0.00287962678688
C          -1.19084355684139   -0.66647023124791    0.00316222522843
C          -1.11410567007148    0.75223536094602   -0.00077857119240
N           0.00074707059966    1.44954918456356   -0.00152397042157
C           1.11515792152222    0.75153540684791    0.00164204271522
C           1.19100152207020   -0.66721771894912    0.00574544751492
C           2.54039231926412   -1.12751010042926    0.00839542205078
C           3.40811870314827   -0.09607525705125    0.00631422448052
S           2.68913379803133    1.49584926291810    0.00111703671274
F           4.73254200971365   -0.19553404652806    0.00787366598674
C          -0.00014855934232   -1.38295767331627    0.00651174619004
H          -2.83172732227163   -2.15957060087011    0.00546205215788
H           2.83094249704124   -2.16134433208683    0.01160867197722
H          -0.00049501653166   -2.46229791246049    0.00958013801793
