9
 SCF done        -16.697646872571          0.000190514936
C          -0.64041189450839    1.11495043417431    0.00131196474288
N           0.68051423720978    1.17407584666411   -0.00017841645346
C           1.28774168919051   -0.00049649848588   -0.00087151952256
N           0.67848272172066   -1.17401552289725   -0.00019328179459
C          -0.64233985961304   -1.11260404312430    0.00128945978071
N          -1.35400702878863    0.00178954663962    0.00210163749527
H          -1.18112082731073    2.05336028859803    0.00190857642482
H           2.37078241383420   -0.00143302658120   -0.00208213929498
H          -1.18467145173435   -2.05007702498744    0.00190371862190
