19
 SCF done        -42.655872666701          0.000711655645
C          -0.06942824623676    0.59741812593191    0.00038657625379
C          -1.32413347629492    1.12800861584427    0.00193495963301
S          -2.52493747214339   -0.10755053706590    0.00101726866118
C          -1.31832489298036   -1.37309794876905   -0.00118951240392
Cl         -1.75658993282778   -3.00828837553699   -0.00300246490149
C          -0.06453596928943   -0.83730395878277   -0.00152116373483
C           1.31508510091563   -1.33241629554825   -0.00388330043331
O           1.71706315668112   -2.46850156827485   -0.00470653300519
C           2.16632241144753   -0.08986249546486   -0.00443635400936
C           1.29136886239080    1.08743105657984   -0.00025280394206
C           1.66244872357223    2.40010644386015    0.00439861883662
C           0.70495278121336    3.43880100797999    0.01113151391791
N          -0.06260006217372    4.29051386596791    0.01680797882420
C           2.99470712209848    2.86497546599770    0.00527501661018
N           4.05766847442657    3.29623984357230    0.00586640610589
C           3.49898498295787   -0.15889263992567   -0.01000530172322
H          -1.62544287049891    2.15684913238607    0.00324617822480
H           3.96657329505197   -1.13079405256482   -0.01435317734977
H           4.14210801168968    0.70342431381303   -0.01307390556445
