23
 SCF done        -33.148122070033          0.000659871256
C           0.90218361038925   -0.33205643287357    0.10336123294434
C           0.04804733893749   -1.37015995959008    0.02859387771915
C          -1.37882177331415   -1.01053892432769   -0.05786556670009
O          -2.34507418184061   -1.97320915576080   -0.06483385154999
C          -1.88483845477423   -3.25018481652364    0.32557483114511
C          -0.56723618095549   -3.57903987179818   -0.36759838657584
O           0.44224030981163   -2.67617646373918    0.03277550759998
C          -1.63864580989220    0.30848574834482   -0.13012601269213
Si         -0.04711152721357    1.26368203579410   -0.00863307057585
C           0.04449561815473    2.33440554917804    1.53029903783551
C           0.38206171942101    2.26842586932899   -1.53491324729563
H           1.96073822855798   -0.51529215560122    0.16742880945830
H          -1.74159652959449   -3.27839419572541    1.41567856999372
H          -2.66608601361666   -3.95839836443391    0.04344993081983
H          -0.70593998338785   -3.52499811492207   -1.45750128234592
H          -0.21528457188010   -4.57572872363855   -0.09471442596411
H          -2.65735238657880    0.64969798817860   -0.19440876025783
H          -0.16300640891490    1.76646123481102    2.43467488827507
H          -0.67302878310143    3.15192451156245    1.49465429949530
H           1.02821911829737    2.78233064594813    1.65222941677902
H           0.31462686815613    1.67706364031625   -2.44542017276558
H           1.39491364466351    2.66242609426152   -1.48390287343863
H          -0.28286385132438    3.12073386121099   -1.65678275190426
