20
 SCF done        -41.483026254856          0.000354661982
C          -2.25636831837493   -0.02974103950437   -0.00088692086691
C          -1.42960008848162   -1.10754596180516    0.01015894694933
C          -0.07904889069622   -0.70760864835026    0.00753098964899
C           0.09484142863391    0.67675258427505   -0.00568982681960
S          -1.42981529812787    1.49015904846265   -0.01449415539241
C           1.43458674563483    1.08287422372162   -0.00977407747775
C           2.27789055009011   -0.00028760982524    0.00064912729800
S           1.43602460975586   -1.53226072498385    0.01607587322266
C           3.70349360858319    0.03825635378586   -0.00264857193960
N           4.44461694043321    1.10716842551723   -0.02252222832873
C           5.73654045060001    0.65155087349733   -0.01943543444556
C           5.70403015405481   -0.72240741558095    0.00351339289532
O           4.42526136892173   -1.11228043049879    0.01412585049061
C           6.88109413057195    1.55166121250395   -0.04003393127812
O           8.03258856499779    1.19982768354938   -0.03869263823628
H          -3.32837723061106   -0.02871377434377   -0.00201283276100
H          -1.76285752913822   -2.12833532309255    0.01940916169084
H           1.78774851278801    2.09609079111461   -0.01974379397010
H           6.47500789222329   -1.46477363787097    0.01326748153067
H           6.58734239814122    2.61565336942825   -0.05582641221036
