15
 SCF done        -26.418400624076          0.000614127909
C          -0.79973957707246   -0.98252170833361   -0.20148734611319
C          -1.34570742085293   -2.01981478747443    0.79120064258716
C          -1.31471167136557    0.38901082378733    0.10447094772683
S          -2.88488979051664    0.79662448778183    0.11727772646267
S          -0.03516049921581    1.52236084363563    0.46498542535509
C           1.25145828112251    0.35103482648414    0.20498200284020
C           0.71351246116987   -0.98099278355324   -0.17162648779175
O           1.40985421956490   -1.93353474840469   -0.40509115132669
C           2.55301382971668    0.60768938569657    0.32388560731724
H          -1.12901621946258   -1.27228296557578   -1.20706052725582
H          -1.05046678996691   -1.76336050595759    1.80661932661927
H          -0.94476883383190   -2.99920869986908    0.54419577629329
H          -2.43055125685400   -2.04558962881364    0.73658450259143
H           2.93002933560969    1.57638193450698    0.59895802784332
H           3.26349393195508   -0.18152647391038    0.14163552685090
