15
 SCF done        -25.624218190424          0.000408197825
C           1.67526539903222   -1.20150827999635    0.27947419306959
C           0.41235509904160   -0.70549498724662    0.15855889127186
C           0.41360528672770    0.68245772433697   -0.16457174066762
S          -0.98653597205117    1.71504798552396   -0.43863190251277
C          -2.29791841642959    0.69081012719167    0.30902241148250
C          -2.31050822842759   -0.70326961605634   -0.27734902363918
S          -0.98713537215744   -1.73881908830636    0.43301696706467
C           1.67725610718884    1.17712436715745   -0.28381560306716
S           2.88077024195048   -0.01273510101447   -0.00048655842298
H           1.95079875092703   -2.20693645871787    0.52334988474124
H          -3.22336779615881    1.21900101619106    0.08002718335570
H          -2.15214085950005    0.66535398567322    1.38963833116034
H          -2.19421862056563   -0.67824934251547   -1.36125066136972
H          -3.23298126381574   -1.22564507417516   -0.02265990167173
H           1.95422564423805    2.18222274195438   -0.52752247079468
