18
 SCF done        -33.819111879590          0.000989472868
C          -0.97554258853787   -0.17272747338341   -0.63430056804731
N          -0.29074278757836    0.91794199650945   -0.58716137034454
C           0.78721797504373    0.66373147575229    0.21598933771260
C           0.75767111213773   -0.62340061525098    0.64232833099126
N          -0.39637986656597   -1.17598796463204    0.11680491138751
C          -0.74667706645502   -2.52023398808914    0.23068988133506
O           0.05605306560487   -3.38629347393102    0.43919550055452
N          -2.10907374768620   -2.77166939411736    0.08450519180470
C          -2.64231838840416   -4.00580181525424   -0.24268441894661
C          -3.98880219329098   -3.86762739479213   -0.16476893205299
N          -4.30895190946276   -2.59865906429286    0.23722754954591
C          -3.19372083422879   -1.96859380149103    0.37730472323922
H          -1.86255677658960   -0.31600592288932   -1.21787503226749
H           1.50761137604945    1.42851013686957    0.42239896264187
H           1.40911667197248   -1.19828275475204    1.26619649330988
H          -2.00946016340825   -4.82663212127837   -0.50702200136161
H          -4.75618064987726   -4.58900261795204   -0.36172867464282
H          -3.09897322872293   -0.95901520702538    0.72229011514099
