14
 SCF done        -25.904960697428          0.000715205769
C          -0.71872038186068   -1.16883180255985   -0.17354041280454
S          -1.46782222143429   -2.61585294290059   -0.11650060798209
S          -1.51811131080198    0.36853239756131   -0.46566831468681
C           0.01764281408717    1.23359895440047   -0.35246494673440
C           1.08819400700976    0.28599169063564   -0.08486290283583
S           2.66201357784790    0.71158594152471    0.08925471712686
N           0.62298825412627   -0.98947935800755   -0.00109925822672
C           1.47449573469642   -2.12484477808042    0.24801352922143
C           0.15250912001998    2.55268233163673   -0.49493006645992
H           2.48343487559542   -1.76238857631438    0.43664616457990
H           1.47138987429921   -2.78820429806479   -0.61783142142718
H           1.10367353703936   -2.67889947903388    1.11053068403412
H          -0.69006902357894    3.19010211065082   -0.68948796384616
H           1.12539114295438    3.00640780855178   -0.41153919995866
