9
 SCF done        -18.615808626866          0.000437812262
C          -1.18793097544879    0.10082712524533   -0.00063163003017
N          -0.34188479109504    1.06699620095724    0.00067194380760
C           0.92546619090182    0.62385052470346   -0.00150429512832
C           1.06168003975401   -0.74493208359992   -0.00463563613969
S          -0.50577217353668   -1.49153213111629   -0.00460226557495
C           2.24620639756409   -1.48538955849294   -0.00778564962037
N           3.22403022337037   -2.08492105143218   -0.00891677398146
H          -2.25068424081728    0.24011087530921    0.00063563948321
H           1.73896932930751    1.32606009842610   -0.00084133281587
