16
 SCF done        -31.479314950238          0.000510594675
C           1.02401602845680   -1.40739551227105   -0.02402038356688
C           2.18037950116125   -0.65998128420757   -0.10718387840998
C           2.14787495569969    0.79901318902353   -0.10396605145553
N           3.38879075401709    1.31832280071248   -0.19310411180976
S           4.43897054170069    0.12055474611184   -0.27048911133630
N           3.44317611114622   -1.12311616760727   -0.19854712746232
C           0.95938143880041    1.49381378888136   -0.01758132764373
C          -0.22096287856638    0.74289309575238    0.06733769758286
C          -1.51770917029490    1.21966076641629    0.16154907298338
S          -2.65708904510226   -0.03868658356998    0.24306285362019
C          -1.46279915914436   -1.24464823288162    0.15606055510038
C          -0.18858907643342   -0.71017798004113    0.06411206525161
H           1.05405905711097   -2.48441657533020   -0.02675068963753
H           0.94143251586969    2.57110694466562   -0.01548384061580
H          -1.83904581373359    2.24103994256475    0.18553017850915
H          -1.73831576068791   -2.27942293821944    0.17546409889027
