13
 SCF done        -23.963491231079          0.000515996337
C          -0.92861528662946   -1.43542070933383    0.00041339056679
C          -2.09918571894216   -0.73000340578339   -0.00014946310170
C          -2.11854482043731    0.68110477097504   -0.00060698947684
C          -0.96776659085523    1.41836899333206   -0.00050885419715
C           0.25581621413063    0.72809573041103    0.00006520693349
C           0.27557085647200   -0.71184052432109    0.00053227182935
N           1.51979853971164   -1.19489509826333    0.00104478901399
S           2.54724745273232    0.03942866387999    0.00093708730984
N           1.48632402060797    1.24510167898954    0.00026621218982
H          -0.90418206415968   -2.51322998353592    0.00076045360264
H          -3.04132195942214   -1.25798819662249   -0.00024884823936
H          -3.07481059065048    1.18304519919479   -0.00103222460745
H          -0.97291005255810    2.49644288107763   -0.00084303182342
