22
 SCF done        -48.771961585825          0.000681677916
C           1.42065673861913   -0.01080284044402   -0.35356550275216
C           0.40155829739624    0.38668514684594    0.46033740652629
C           0.56714250046871    0.79855631292323    1.80265893412298
N           0.63583635567416    1.14105182899839    2.89489611453303
C          -0.95724034221520    0.44343764793314    0.07387471912767
N          -2.07466530213594    0.51268966328787   -0.17455473726618
C           2.83360363023861   -0.07615241166587   -0.00335032293889
C           3.57462607719498   -0.53011931280586   -1.11146605249599
C           4.94609189803686   -0.68430666512516   -1.05471434499865
C           5.59781692699409   -0.37937505020441    0.13290548935105
C           4.86835015178444    0.07430315283516    1.24152728200642
C           3.48911690104024    0.22808360586348    1.18154719214060
Cl          5.68654424320717    0.44868413677238    2.70215495581311
Cl          7.29949956280547   -0.55800856923170    0.24331605088512
C           2.66930783075689   -0.78553207457395   -2.24827852643812
O           2.95233439917898   -1.17841891097193   -3.35230831166662
C           1.29765689423631   -0.44987565067891   -1.74592603887246
C           0.21969600425693   -0.57393592299677   -2.52331911679759
H           5.49412520514612   -1.03374049616403   -1.91554370395541
H           2.96166389652061    0.57912436559454    2.05339605693406
H          -0.78280644220443   -0.35076475489993   -2.20431667234929
H           0.35386457299974   -0.92559320129172   -3.53430087090997
