19
 SCF done        -32.251744073362          0.000829776744
C           3.13702952871348   -0.21181557310356    0.01040019518751
C           2.50289411527062    0.98984911104838    0.00762024582629
C           1.10288608187968    0.82047304315966    0.00633447748616
C           0.70693946957800   -0.52650820974947    0.00815106841311
S           2.07164381045810   -1.58290827307816    0.01147588447543
C          -0.69389766351363   -0.53078151763669    0.00633711353053
C          -1.10093045755488    0.81380593401775    0.00346592769802
N          -0.00171256464867    1.63100861317346    0.00356120766499
C           0.01237093437354    3.06621270821392    0.00084966132299
C          -2.50315490411984    0.96776406033714    0.00114299711236
C          -3.12566430691761   -0.23989445297059    0.00230808686605
S          -2.04819179512462   -1.60054997232415    0.00619830967460
H           4.19345897220724   -0.39287250532187    0.01187238292880
H           3.01174809303719    1.93677967237839    0.00654010723350
H          -1.01130643803726    3.43404213025881    0.00002140753345
H           0.52575101619864    3.44369035948745   -0.88754697472456
H           0.52548573674159    3.44695659427953    0.88798401378868
H          -3.02701864882949    1.90674663886181   -0.00122474585482
H          -4.18055097971206   -0.42973836103181    0.00109863383691
