14
 SCF done        -33.549986561381          0.000559319802
C           1.04825766167145   -0.70191162788505   -0.06649942973616
C           0.97827882814175    0.63642965779228    0.09735857909705
C          -0.37342720618444    1.13520742021301    0.30954442658744
C          -0.72912248372579    2.43814577825353    0.50151392961610
C           0.17779413578761    3.52132916022199    0.52436241831352
N           0.85536963687576    4.44450361491568    0.55611505936111
C          -2.08132424987758    2.80770914863816    0.69943554681501
N          -3.17229274857522    3.11608545026400    0.86017435589429
S          -1.53255337815542   -0.16719466694988    0.29107587980779
C          -0.23020481554059   -1.40233820043894   -0.00173686008768
O          -0.46047258572630   -2.56650159046096   -0.11159392446875
C           2.11582117402470    1.47401922593497    0.06540700249765
N           3.07560276498589    2.09684284539707    0.02977287807645
H           1.95186326629823   -1.26267621589590   -0.23506986177387
