15
 SCF done        -28.964449138112          0.000851107990
C          -0.53289586506575    1.27252774784520   -0.19241072644771
C           0.77225152224740    1.10086302911866    0.07426013520871
C           1.30764229249703   -0.22706605948036    0.22974934525114
C           2.63411365246735   -0.46585339286163    0.50423211696392
C           3.13925604636418   -1.77001654739700    0.65390206484361
N           3.54631273976994   -2.83697761265817    0.77409050685175
C           3.56224984896047    0.58041625908169    0.65279068592109
N           4.31571777525812    1.43819574160672    0.77235422172591
C           0.34246356466069   -1.28471794619358    0.07486608772863
C          -0.94053725136220   -0.99016345869045   -0.19188291952971
O          -1.41170004457861    0.26275699298345   -0.33113725307764
H          -0.99960944056874    2.23744133137237   -0.32070905380332
H           1.42742859466714    1.95079699866189    0.17420512172952
H           0.65978794253564   -2.30984790189281    0.17521491814054
H          -1.71467137785266   -1.73156518149599   -0.31989525150647
