18
 SCF done        -33.564450201665          0.000905198721
C          -0.74243395077799    1.20876661798033    0.00352703927931
C           0.64637219982573    1.28233823462502   -0.08575411120765
N           1.21849106073369    2.59815033513472   -0.18074041867628
O           0.52699553324321    3.53503909007056    0.16064546447628
O           2.35458573994387    2.70497152875675   -0.59872390564121
C           1.43214519479227    0.12346410638779   -0.08612345478716
C           2.94018652246159    0.13261009196818   -0.14841218565714
O           3.51900677037622   -1.10298590000645    0.18557247276111
C           0.76932520941894   -1.09797312401322   -0.01007962355608
C          -0.60873443788978   -1.17337413073491    0.06459521078065
C          -1.37223309363887   -0.01538666665685    0.07754919241710
H          -1.30498849280066    2.13005273256841    0.00467975336830
H           3.34533417685758    0.93788302541501    0.47891107515198
H           3.25323543792593    0.34214707859674   -1.17665574930927
H           3.38992777329353   -1.26937738546490    1.12631590052186
H           1.36139080728107   -2.00070593373451   -0.02669239812495
H          -1.08909260108540   -2.13881332373880    0.11191396431331
H          -2.44772384996097   -0.06858637715367    0.13786177388985
