15
 SCF done        -28.134392494388          0.000922858331
C          -0.46683825743797    1.45179183163363   -0.16187135699445
C           0.81130479665469    1.12119837783605    0.07680242593457
C           1.29479485746767   -0.22376120531407    0.20772159812431
C           2.63406826120977   -0.46569057104494    0.45328512741758
C           3.14903888557221   -1.76668205766102    0.58745429298703
N           3.57007466010089   -2.82968475935182    0.69593319940564
C           3.57218945203125    0.57266382583827    0.58550291299925
N           4.33907841233893    1.42085069704006    0.69180939573596
C           0.37091295682157   -1.31450527395161    0.07904939003761
C          -0.94214009579875   -1.17703881070455   -0.15953824051067
S          -1.76914949936170    0.32971137877220   -0.35454220445943
H          -0.78324825160803    2.47835157092571   -0.25160660428731
H           1.53911655577899    1.91548018217544    0.18000849092200
H           0.77456777409609   -2.31317436381809    0.18394254956958
H          -1.59801050786558   -2.02793082237524   -0.24774097688171
