28
 SCF done        -50.273211869591          0.000842755208
C           1.59069338038357   -0.77581098777351    0.34951982457055
C           0.59301090391746   -1.00123449555745    1.44519779884733
O           0.83302374901738   -0.96908762655498    2.63075805857110
C          -0.68693443677544   -1.25609927040785    0.76811557224915
C          -0.50448078838155   -1.20762600619760   -0.61667486639462
C           0.88937992656585   -0.92610354407987   -0.92560990767246
C           1.44738548367670   -0.83059121597951   -2.16709313666582
C           2.81169377385669   -0.55306825578526   -2.41082040889730
N           3.90439996767205   -0.33103718618560   -2.67963445903696
C           0.74850711956999   -1.00493617125331   -3.38260528006165
N           0.24665417178861   -1.13768193815327   -4.40580439274340
C          -1.59109381850522   -1.41214528542282   -1.48162474311633
C          -2.82594808608460   -1.66160013676322   -0.94510744195668
C          -3.04144009217490   -1.72247878529018    0.44991769323782
C          -1.94852384377912   -1.51477635108491    1.34077925026265
C          -2.16672703859224   -1.57634900984157    2.73226534123741
C          -3.41804792579162   -1.83558644877527    3.22041922841064
C          -4.49780536893372   -2.04101685569662    2.34679729718300
C          -4.31533969743918   -1.98512149871918    0.99178168799182
C           2.86664725526289   -0.48832354059663    0.61237241194489
H          -1.46131518901012   -1.37218236084217   -2.55044725114971
H          -3.67104249440919   -1.81900466187334   -1.59970801936852
H          -1.33076904058229   -1.41663448667408    3.39462759668843
H          -3.58426329262185   -1.88421344678807    4.28610182392486
H          -5.47706482976846   -2.24371785360041    2.75434388751767
H          -5.14453208198345   -2.14167908747153    0.31713132702959
H           3.17703542263139   -0.42540148749823    1.64363115264573
H           3.61371687050259   -0.31478200513038   -0.14180004525744
