18
 SCF done        -40.647173015081          0.000295533795
C           1.60615768378752   -1.04533824223154    0.66918252908406
O           1.05403763412148   -1.79375730742691    1.43643765101083
C           3.05849542004763   -0.75840739444900    0.57289640780204
C           3.30101921262578    0.17797850044839   -0.44155073254714
C           4.58631310362716    0.60374178285159   -0.72295539744210
C           5.63397024970626    0.07778589238206    0.02326335225866
C           5.39154767331393   -0.86032262243077    1.03706551792579
C           4.09804936369581   -1.28281224853909    1.31910155522161
Cl          6.70544671957017   -1.49572333932017    1.94037818905456
Cl          7.24189786165143    0.58218654844076   -0.30242428745783
C           2.02656240706256    0.57377992356591   -1.08947575277035
O           1.87345192129751    1.35804734806672   -1.99227968040594
C           0.96848194309849   -0.20904214694273   -0.38824812314284
C          -0.33356558996405   -0.17342279361072   -0.66673024856819
H           4.77133769545017    1.32549916610591   -1.50303844242571
H           3.90996992021885   -2.00335667367153    2.09944440030557
H          -1.03427880033565   -0.77703607528275   -0.11272724975839
H          -0.71351441897480    0.45697968204296   -1.45441968814322
