37
 SCF done        -58.198642672284          0.000360849345
C          -0.30562684279155    1.29586590865243   -2.17939842089321
C           0.71315737807180    1.73304651141149   -1.39153424532951
C           1.26670975198789    0.71338769863183   -0.58992957204595
C           0.62349442163776   -0.49831709874350   -0.80874638973722
S          -0.63540404156405   -0.38576962011586   -1.97531735917457
C           1.10846429864827   -1.60494515342553   -0.04968885056562
C           2.16733798065827   -1.33318378609539    0.80774054234410
Si          2.62183152607673    0.47623744497547    0.67688402229725
C           2.34778876572978    1.40722532557105    2.27080627457300
C           1.55091002576616    0.88509812744634    3.29294464392252
C           1.34297831794667    1.58073679016853    4.46907220843445
C           1.92796081137508    2.82231365765376    4.65337263953458
C           2.72095307886287    3.36139609362885    3.65401553378194
C           2.92591142446231    2.66159714562976    2.47999561769967
C           4.32110637550290    0.78794954294671   -0.02898467199271
C           4.53529095561594    0.86391486497216   -1.40762490340300
C           5.79492920859035    1.09376481789940   -1.92814505289565
C           6.87776823944589    1.25253352756198   -1.07960864191906
C           6.69111560890088    1.17853360424966    0.29085166835430
C           5.42944927482811    0.94884204262808    0.80613612242154
C           2.56085701803176   -2.49136396639285    1.50968770354378
C           1.82077101688356   -3.58585889931385    1.18721846266372
S           0.60854813933031   -3.24964802129804    0.00577932836055
H          -0.89550681726149    1.85619998517934   -2.87804364777461
H           1.05906117828202    2.75169973424750   -1.38366804324085
H           1.09210500676840   -0.08404881779738    3.15644277896657
H           0.72348911509038    1.15474052692215    5.24538187124793
H           1.76761363923693    3.36716199140974    5.57239244588428
H           3.18075573908683    4.32963562660209    3.79207410645140
H           3.54767501151406    3.08864305299543    1.70568096346477
H           3.69431311995845    0.74441205359335   -2.07593073486060
H           5.93366732325077    1.15184921628431   -2.99826236567672
H           7.86283314510662    1.43435426916457   -1.48430934732453
H           7.53229519127949    1.30134504099621    0.95827150692260
H           5.29200310458445    0.89501145119183    1.87704100047142
H           3.36167627859410   -2.51026433620728    2.22774921731347
H           1.90640623051050   -4.58449635320480    1.56860358814970
