13
 SCF done        -24.240132227056          0.000182408208
C           2.95569003408117    0.02588581570668    1.27056228616979
C           2.38833668030258   -0.04009395386844    0.06412582863924
C           3.24075377015205   -0.10728622461368   -1.16649731023788
O           4.44358066734760   -0.10619435802106   -1.14793858368258
O           2.49672234823898   -0.16749151415744   -2.26888279318937
C           3.19969741483256   -0.23482792375501   -3.50148505375445
C           0.98441327474185   -0.05014024974736   -0.11948218291262
N          -0.15250842914371   -0.05738775317086   -0.25702752811245
H           4.03060699454195    0.03049181243049    1.35157137860747
H           2.37457978087085    0.07533009949736    2.17559963593282
H           2.44166894978894   -0.27724508119186   -4.27872157219327
H           3.83051996323399   -1.12561571206838   -3.52893674971195
H           3.83059855101117    0.64761504295957   -3.62578735555476
