14
 SCF done        -24.526058706208          0.000232492507
C          -2.07343970910544   -0.72791558652051    0.00008024085765
C          -2.09289102166351    0.66767388509398    0.00016659573686
C          -0.93124827735221    1.41267497573251    0.00016895244389
C           0.26857114677964    0.71431847111017    0.00008006095985
C           0.27511721403310   -0.69612489892895   -0.00000785109623
C          -0.88942813965794   -1.44125135383357   -0.00000993867880
O           1.57438805643356   -1.09521551633645   -0.00008306835831
C           2.27117547846594    0.05900677175754   -0.00003572806476
N           1.58033402985174    1.13933213719420    0.00005505088758
H          -3.00978120704172   -1.26496217098409    0.00008212892603
H          -3.04653399643859    1.17393498360100    0.00023461192748
H          -0.94078060694123    2.49009658454191    0.00023738039427
H          -0.86821779303330   -2.51906222250140   -0.00007816861112
H           3.34230482566996    0.00063394007367   -0.00008026732438
