21
 SCF done        -37.732417993632          0.000414590096
C           1.60136816243759    1.26985466562831   -0.00092619499021
C           1.96353786051551    2.59073661805964   -0.00141150949831
C           3.32523215755682    2.96284205977939   -0.00229514189419
N           4.43162945860399    3.26474039784739   -0.00265369710380
C           1.07593208851074    3.68151349388200   -0.00126691104756
N           0.40515610760098    4.61378402230466   -0.00157575435780
C           0.27257439536103    0.69717174300901    0.00015139965615
C           0.28322466236767   -0.70903810619983    0.00027248604766
C          -0.91087913217720   -1.41651889397946    0.00143825424317
C          -2.10737867051009   -0.72294708331531    0.00256127939484
C          -2.11947063513912    0.66597539735044    0.00246849242832
C          -0.93847366796093    1.38428791947356    0.00124479544024
C           1.61687602446647   -1.28318407454832   -0.00065912176014
S           2.82138388553829    0.02185369423049   -0.00167893358034
C           1.97168306768725   -2.56697477259887   -0.00103792470293
H          -0.90418788520829   -2.49502495866354    0.00153350425910
H          -3.03975556820139   -1.26669872010492    0.00351832224573
H          -3.06036764520240    1.19410107749596    0.00337630367238
H          -0.95949645255519    2.46146286547538    0.00124894895589
H           1.23715486032639   -3.35250678929692   -0.00096532782740
H           3.00508692598184   -2.86352055582911   -0.00232326958079
