21
 SCF done        -50.464208654901          0.000799060933
C          -1.31566672138798    1.16282562855100   -0.06745160377315
C          -0.03718977449403    0.67965567517108   -0.00060000402135
C          -0.01196926005441   -0.75576807539190    0.01245873095842
C          -1.24424476698956   -1.32100479654950   -0.04597695460769
S          -2.46404602008627   -0.10793689311769   -0.11537540298886
C           1.37051874872202   -1.22790291140528    0.06104787244641
O           1.79051626377204   -2.35445624122348    0.12708088416917
C           2.21034871971223    0.02404445610246    0.01221332284796
C           1.31873525447532    1.20093888448649    0.00419639039079
C           1.66878894067535    2.51327182855693    0.02534064483014
N           0.71135529381075    3.59510530541637    0.19617073007606
O           0.89131327463373    4.57752751052047   -0.48063188264489
O          -0.18544377265732    3.43301931961199    0.98846979294889
N           3.01657914384989    3.03759671934956   -0.12144746152801
O           3.32048052618494    3.93338952862691    0.62684940722285
O           3.72128304158583    2.54914625135087   -0.97080225645304
C           3.53971600678212   -0.09675507177863    0.00597067459450
H          -1.67241491428387    2.17314792486127   -0.07077158604286
H          -1.50563993635902   -2.36011719949322   -0.05447651043781
H           3.94292845682034   -1.09739460646406    0.05696715562792
H           4.24664149528796    0.70773676281839   -0.07949194361540
