20
 SCF done        -35.209718595943          0.000244646903
C           1.33952026359096    1.09247522808054    0.00057861897360
C           0.02757733103470    0.72538286520593    0.00028977281393
C          -1.33431000492615    1.21389031453786    0.00063438576732
O          -1.81594619339882    2.32435213197923    0.00169976325741
N          -2.11314175778987    0.02967865789989   -0.00065799442566
C          -3.54953100118804    0.05308575162681   -0.00100639139926
C          -1.33307413173394   -1.08543136736519   -0.00170292902242
C          -0.02113311608860   -0.71833182394959   -0.00115367623685
C           1.34074612589118   -1.20684069516768   -0.00167040307586
O           1.82236544043250   -2.31729990872605   -0.00275879647177
N           2.11958393018064   -0.02263508318731   -0.00053009744569
C           3.55597161311154   -0.04606236127046   -0.00085359447572
H           1.78255630058696    2.07188279419299    0.00151114359532
H          -3.85337416150357    1.09994392027035   -0.00010981510908
H          -3.94773083090439   -0.43932484202389    0.88825845631623
H          -3.94724676480110   -0.43766680522715   -0.89140828975625
H          -1.77610195362461   -2.06484334634706   -0.00276548696200
H           3.85978948218057   -1.09292677557507   -0.00140568225034
H           3.95413678228115    0.44511534545352    0.88910459209013
H           3.95374264666889    0.44590599959235   -0.89056357618302
