12
 SCF done        -16.988312434084          0.000101199375
C          -1.27619130923305    0.10730297614551   -0.00255038361661
C          -0.37477023559439    1.11954977995549    0.00044449913331
C           0.97061722263075    0.66629359361557    0.00142928475684
C           2.15950257212764    1.57258228241407    0.00455186460866
C           1.03832609910076   -0.69237105879309   -0.00089208969147
S          -0.51355206033387   -1.43304881205511   -0.00430145018638
H          -2.34633223990207    0.16495702141700   -0.00386540425668
H          -0.64829290887930    2.15989069082542    0.00192574480523
H           1.84207960307703    2.61188890771237    0.00716131820409
H           2.77620069584841    1.39829149998006   -0.87616997159777
H           2.77523592474552    1.39352984574031    0.88498276147037
H           1.91427663641257   -1.31037672695759   -0.00081617362959
