13
 SCF done        -21.049943080040          0.000181302321
C          -1.28046042617155    0.06671875097269   -0.00284788088202
C          -0.42254155031373    1.12543799723673    0.00010111376775
O          -0.72709398970398    2.44841979363578    0.00253831474817
C          -2.09283846360069    2.78321644762723    0.00157717391355
C           0.94283717241155    0.71845162666201    0.00047144127096
C           1.08022883014066   -0.62770563652765   -0.00216447556145
S          -0.43574155500334   -1.43608844387246   -0.00521651226340
H          -2.35101725035885    0.05693245215157   -0.00382959228913
H          -2.13576891611949    3.87081545425220    0.00367452289899
H          -2.59816008098727    2.39525437276294    0.89226776132256
H          -2.59601869128462    2.39877079286102   -0.89184875580733
H           1.75496474029733    1.42084349864266    0.00263181327077
H           1.98379018069398   -1.20339710640471   -0.00255492438940
