16
 SCF done        -30.748730344314          0.000319569601
C          -1.39011138198805   -1.46457295614581   -0.00176761739806
O          -1.61824349908151   -2.64443759164749   -0.00224874957510
C          -0.09297887836189   -0.74298288124293   -0.00159360294555
C          -0.35536566135993    0.63063984425425   -0.00093315952820
C           0.67016425602060    1.55325149943902   -0.00062927093324
C           1.97484835434789    1.06972379895662   -0.00100081215578
C           2.23501282590284   -0.29226552613841   -0.00166343928494
C           1.20040948081536   -1.22263928378315   -0.00197173238127
C          -1.82713972330583    0.82331812268015   -0.00068340813339
O          -2.47409427516096    1.83602461484100   -0.00014497325203
N          -2.35003532455697   -0.46225041843831   -0.00123616160748
H           0.45986309818306    2.61136269389793   -0.00012105295207
H           2.79897220256998    1.76736258193111   -0.00078519467092
H           3.25825343931882   -0.63702429624069   -0.00195668967993
H           1.39492075170224   -2.28376659746543   -0.00248918008260
H          -3.34195566504566   -0.65172360489786   -0.00118495541943
