28
 SCF done        -50.273283897160          0.000425318859
C           1.36396330075599   -0.07256323305760   -0.54518398661499
C           0.42979602705381   -0.16501469988540    0.44596114611114
C           0.70652559374962    0.01426641731587    1.81946363536151
N           0.86974228332838    0.14381592003478    2.94776381322952
C          -0.93608238486480   -0.45758117363722    0.23670384967655
N          -2.05550392343254   -0.68767631090391    0.13719593555543
C           2.77731667951237    0.22983262353390   -0.37448473269706
C           3.42152877205403    0.20302754347148   -1.64684888000576
C           4.75793482061059    0.45137367503834   -1.78279490963782
C           5.52568487812334    0.74879694166202   -0.63564977423429
C           4.88857904084217    0.78443148616382    0.63922245033683
C           3.50616760178768    0.51885634717085    0.75162800136104
C           5.66361035869908    1.09019473224050    1.77745131460417
C           7.00230838738778    1.34744884310217    1.66357513716622
C           7.62884740165172    1.30934678113411    0.40831356289505
C           6.90671552132085    1.01618694403941   -0.71648381815930
C           2.43530266896212   -0.11138473899775   -2.69129462837409
O           2.61460069019586   -0.21979314681079   -3.88092515289350
C           1.12662150643677   -0.27133023602331   -1.97624839504979
C          -0.00035288405786   -0.54316834317461   -2.63768835062469
H           5.22235186234581    0.42302580343547   -2.75735620182169
H           3.05353457669990    0.55293423076512    1.73005079052935
H           5.17697553607701    1.11737119139316    2.74131937904630
H           7.58703120546287    1.58175239529854    2.54039989834245
H           8.68657127605030    1.51407264822589    0.33764491729509
H           7.38340063357541    0.98591522098234   -1.68527310067654
H          -0.96143487715769   -0.66037362676566   -2.16959917783614
H           0.04758344682689   -0.65136423575730   -3.71005272288432
