11
 SCF done        -13.321813245672          0.000630403090
C           1.31626224807973    0.23950566934615    0.00296488065318
C           0.74239519105475   -0.97732277415077    0.00587129736158
C          -0.71639357855091   -0.98243651075010    0.00894014339966
C          -1.29877683642223    0.23032584774002    0.00846738786262
Si          0.00408766276455    1.55893523965737    0.00389376893592
H           0.00371971794932    2.39003434795631    1.21113341389458
H          -0.00135402876728    2.38666424910259   -1.20564591917347
H           2.38869940631913    0.35311090773095    0.00056529465391
H           1.28463834399186   -1.91237594861063    0.00605429537682
H          -1.25206463871490   -1.92125521527716    0.01139172842044
H          -2.37199348770404    0.33640418725526    0.01058370861477
