10
 SCF done        -16.414784502854          0.000674075858
C          -0.74964492295337    1.08674762599242    0.03754186718613
C           0.63831712603859    1.15607702330378    0.04292292557422
N           1.38480747900540    0.06247916092803    0.04590703084098
C           0.75101096016492   -1.10006535909323    0.04353971485505
C          -0.63695068620035   -1.16939554985648    0.03815877905408
N          -1.38344180728339   -0.07579727449259    0.03517464972128
H          -1.37019352908882    1.97232737327292    0.03507124035416
H           1.16752761140562    2.09908863532021    0.04490950851989
H           1.37155979558588   -1.98564514963753    0.04601186433561
H          -1.16616202667449   -2.11240648573753    0.03617241955860
