11
 SCF done        -25.207639955132          0.000490597272
C          -0.91389629398276   -1.37863998414231    0.00045580668019
N          -2.01272441457915   -0.69327259701505   -0.00054517664100
N          -2.03113017174333    0.63753276298575   -0.00178869670534
C          -0.95167671757345    1.35302766765004   -0.00209680857905
C           0.32036165635114    0.72512949404976   -0.00108091051598
C           0.34029056254598   -0.71580198482571    0.00026635141533
N           1.60720988552035   -1.08878133955809    0.00105461457279
O           2.31413059233972    0.03210134883366   -0.00002777607315
N           1.57648134159559    1.13300470040826   -0.00089707771838
H          -0.99511499796148   -2.45460109679511    0.00139271416939
H          -1.06262144251262    2.42633102840881   -0.00300304060481
