23
 SCF done        -34.778103124389          0.000317274971
C          -1.28302527848237    0.54527569829237   -0.67570735287797
C          -0.19355092431021    1.30195640299853   -0.37568712695684
C           0.94104733111416    0.53242256408294   -0.04359708710586
C           0.65449096135088   -0.82598556373909   -0.10766167942890
S          -0.97148086429554   -1.14822845853023   -0.56630095752811
C           1.73342036903210   -1.70395293555885    0.21048093698273
C           2.93385119206691   -1.08931566413498    0.54578044168679
Si          2.72792156564637    0.76861034003611    0.45963864355021
C           2.93300848405697    1.62770275098431    2.11306894123779
C           3.78226904792076    1.56647453317733   -0.86948386345998
C           3.92574536480738   -2.04849654190672    0.83841843897744
C           3.48059236298978   -3.32856075506955    0.72531812189633
S           1.82349513694211   -3.42089672936901    0.25352625609493
H          -2.26449210241831    0.87236913022905   -0.95843233767755
H          -0.20231289298167    2.37763793863939   -0.39112985663744
H           2.61551081496350    2.66756824250866    2.06629599071998
H           3.97155582280690    1.62831018689843    2.43825406351456
H           2.35146825121554    1.15089515302473    2.89962931057926
H           3.64553039894225    1.09440337282432   -1.84022451641530
H           4.84197231583806    1.50423527916797   -0.63032819517782
H           3.54649318121830    2.62171458460564   -0.99051467246127
H           4.93275903281812   -1.79872754816634    1.12278885208193
H           4.02232042875838   -4.23949198099476    0.88915764840542
