12
 SCF done        -24.338085129978          0.000563102721
C          -0.75480106933186    1.17245414877076   -0.00750339752880
C           0.62642187721366    1.24779252922482   -0.00717562950953
C           1.35986448299033    0.07407102952740   -0.00118106662974
F           2.70558061145744    0.14747305772119   -0.00086106215826
C           0.75843110047940   -1.17246078730022    0.00449663872779
C          -0.62279185000300   -1.24779938648449    0.00416878580487
C          -1.35623432824683   -0.07407781767616   -0.00182546388951
F          -2.70195041351936   -0.14747961032560   -0.00214515517359
H          -1.36346370735815    2.06231595879466   -0.01207438622821
H           1.13468846962857    2.19857734707832   -0.01148104975938
H           1.36709387116691   -2.06232262077013    0.00906757720382
H          -1.13105904447710   -2.19858384856055    0.00847420914055
