12
 SCF done        -36.981140463107          0.000550268565
C          -0.69538889784889    1.20746114525576   -0.00023914799574
F          -1.36066111098845    2.36246273752877   -0.00054089473605
C           0.69759698414765    1.20734587643270    0.00024916517113
F           1.36160395881460    2.36076182356863    0.00041303405011
C           1.39719885729702    0.00278498231450    0.00056611382819
F           2.73008796869863    0.00747024168296    0.00103338332482
C           0.69005970288212   -1.19690354791098    0.00038973013445
F           1.35527810590488   -2.35192404987178    0.00069199159175
C          -0.69343254531057   -1.20894789840442   -0.00009488629676
C          -1.37775186846572   -0.00649070579053   -0.00040648110946
F          -2.71063036639753   -0.01123226503002   -0.00087388367686
H          -1.23117078873375   -2.14302833977560   -0.00022812428559
