10
 SCF done        -11.552701906590          0.000505897874
C           1.01712016816580    0.07743775784133   -0.08694415436237
C           2.34520476868899    0.09133606347831   -0.11322137893669
C           3.12012948143221    0.63700039310011   -1.20674545503064
C           4.44821462109077    0.65107318975704   -1.23289936383703
H           0.46473291427194   -0.33473037981326    0.74006810026532
H           0.43327316142582    0.48189944718159   -0.89824177861868
H           2.91231480026387   -0.31968463618985    0.71249580766222
H           2.55302810010807    1.04827510088469   -2.03234003745949
H           5.03204606349780    0.24720817468943   -0.42129386656964
H           5.00062592105473    1.06380488907060   -2.05961787311300
