15
 SCF done        -28.890763649299          0.000453942226
C           3.14905170619792   -0.40402253460612    0.00090166529083
C           2.63136777319908    0.85080611626198    0.00249845145212
C           1.22290145108377    0.82029573097898    0.00319795978431
C           0.69680051833528   -0.46794366239643    0.00209514882463
S           1.94970133501671   -1.65385559594298    0.00017240631575
C          -0.70860038401375   -0.46870881430038    0.00282633305479
C          -1.23605865537351    0.81898074949433    0.00447614887093
S          -0.00723846317299    2.05165430328547    0.00515025794504
C          -2.64454788443096    0.84801664229918    0.00524089259288
C          -3.16091340990820   -0.40735960056857    0.00417551538150
S          -1.96024483521294   -1.65592509972931    0.00220772990842
H           4.18247706822738   -0.68786459200901    0.00006634339153
H           3.21804551391663    1.75046496417224    0.00314941750918
H          -3.23217479224606    1.74705627220446    0.00650225678398
H          -4.19404694161836   -0.69226487914386    0.00440947289411
