18
 SCF done        -30.959513506175          0.000334725172
C           3.52034040248382   -0.01671699944145   -0.00872227373308
C           2.63685232083733   -1.03424713128198   -0.00690537463956
C           1.27977781956295   -0.59111319053463   -0.00540282578449
C           1.19184105800113    0.82344552231972   -0.00618766777957
S           2.77802480061415    1.54981949836243   -0.00873527763119
C          -0.01451180537755    1.49137101209105   -0.00504432078253
C          -1.17885626472614    0.72966781440412   -0.00306088802375
C          -1.09091885259376   -0.68488987502987   -0.00227769047342
C           0.11543355225043   -1.35281856973509   -0.00340677385557
S          -2.67709984955957   -1.41126880946261    0.00019821671452
C          -3.41941742345337    0.15526598853177    0.00014861589212
C          -2.53593224953639    1.17279831834803   -0.00162091855480
H           4.59165695230391   -0.07171288963654   -0.01010978990491
H           2.91595867588008   -2.07278511654428   -0.00661351373937
H          -0.05939464160438    2.56903287462277   -0.00567072787653
H           0.16031778580223   -2.43047967463375   -0.00277680830060
H          -4.49073504976753    0.21025644216957    0.00146719504319
H          -2.81504723111733    2.21133478545076   -0.00192917657044
