18
 SCF done        -32.870933574314          0.000527670938
C          -3.12467929002920    0.87487834467583   -0.04387029733549
C          -2.77513196626931   -0.43635205575793    0.04287104386810
C          -1.37459485113575   -0.61389678474787    0.00631304072862
C          -0.68784345223550    0.57994373277003   -0.09709035484794
S          -1.76913334769208    1.92579132629819   -0.17169211388136
C           0.73642479487747    0.55286795455548   -0.07019090446661
C           1.37521309168904   -0.66441631595822   -0.12165432602626
C           0.57640503884262   -1.91770828929024   -0.33150583829607
O          -0.77142880065101   -1.82454502845471    0.12374594932016
C           2.77450365949935   -0.54323205531996   -0.01627166350174
C           3.17334123537360    0.75062865611215    0.11433572936524
S           1.85248066671403    1.85721626408236    0.11606856584762
H          -4.11016236754936    1.29494866281553   -0.04999717954352
H          -3.47050405795422   -1.24968500470954    0.13119338737845
H           1.01199683340372   -2.75775124937912    0.21693609050450
H           0.56759734784638   -2.17423223034544   -1.40678222906787
H           3.45126647060762   -1.37811902967592   -0.03996246789251
H           4.17033899466259    1.13117310232936    0.20833356784664
