9
 SCF done        -13.735070155425          0.000492941684
C          -1.32183659010154    0.11727638592516   -0.01426691808275
C          -0.40638359070216    1.11842709821901   -0.01902857401397
C           0.94092756699628    0.68266409332004   -0.01448422994733
C           1.09667353121538   -0.66494598101898   -0.00610997065843
Se         -0.52800528986940   -1.55818251411681   -0.00291627142001
H          -2.39202527808342    0.22156346074047   -0.01642556357442
H          -0.67755690526030    2.16088549953339   -0.02573015090543
H           1.77123773177100    1.36886814766753   -0.01747075512368
H           2.02522882403415   -1.20711619026980   -0.00152756627398
