11
 SCF done        -24.474906751067          0.000588900119
C          -0.93741742840868   -1.37076911537356    0.00058688977745
N          -2.04673561383262   -0.69072322902497   -0.00027882256966
N          -2.06525933077865    0.62937093262551   -0.00134255965265
C          -0.97545908726259    1.34027555585113   -0.00159729911784
C           0.29239597894606    0.71946461233493   -0.00073383312806
C           0.31251935606717   -0.71462766259512    0.00042168747307
N           1.55505079984242   -1.19925781737433    0.00116629027645
S           2.57938802657861    0.03436933837582    0.00048052314293
N           1.52084005272738    1.23876833401917   -0.00079689351265
H          -1.01701510360311   -2.44751951328791    0.00142429020206
H          -1.08523765027598    2.41436856444932   -0.00249027289108
