16
 SCF done        -26.011583790340          0.000308374708
C          -1.20373155933535    1.37345924468520   -0.03677137797242
C          -2.36443679620085    0.65161097388107   -0.04316566032525
C          -2.33955667551032   -0.75440863018342   -0.02447938809313
C          -1.15404567476092   -1.43432192270683    0.00051936403772
C           0.06065256560234   -0.72013607011932    0.00775125581409
N           1.23454303596540   -1.38722388230013    0.03227849298202
C           2.32694223840549   -0.67340267016334    0.03777108209031
C           2.30197600474581    0.73741206353885    0.01912635192942
N           1.18501220240227    1.41174696678309   -0.00477596777165
C           0.03546697586014    0.70313426319520   -0.01112900560802
H          -1.19947947596047    2.45226707501209   -0.05075120018211
H          -3.31780955790292    1.15899506809583   -0.06256967012820
H          -3.27437583741286   -1.29553482375926   -0.02994631237416
H          -1.11162771188692   -2.51229464152996    0.01516974057033
H           3.26250212011751   -1.21678229005091    0.05791546488850
H           3.21771814587166    1.31388927562185    0.02450683014255
