12
 SCF done        -32.773499930982          0.000443785464
C          -0.76579168982825    1.16684200762396   -0.00512764144738
C           0.61623679632956    1.23412579023390   -0.00241056727350
F           1.21358636321419    2.42995888466317   -0.00172092344907
C           1.37738466346414    0.06891166114530   -0.00041487663633
F           2.71245661639708    0.13539150454667    0.00220930166417
C           0.76043011597317   -1.16959673861644   -0.00112594720538
C          -0.62159871254557   -1.23688077805152   -0.00384293573676
C          -1.38274665119499   -0.07166677358206   -0.00583849247252
F          -2.71781844935471   -0.13814547491559   -0.00846174631913
F          -1.21894702697815   -2.43271434610285   -0.00453218693121
H          -1.35514605002643    2.06906354242508   -0.00667301255758
H           1.34978402454997   -2.07181927936961    0.00041902836469
