15
 SCF done        -23.898119568090          0.000525124675
C           0.91396371965974   -1.40687316183568    0.00005242782377
C          -0.27941786395845   -0.69324305091867    0.00008450930474
C          -0.25930211216354    0.72235702772836    0.00033613094744
C           0.92600421165279    1.43943974985959    0.00055623250758
C           2.09778044131202    0.70973974832406    0.00051921916062
C           2.09008008649280   -0.68703666293126    0.00027125154350
N          -1.57944736425149    1.09658912050764    0.00029793277297
C          -2.30595518570333   -0.05907970816771    0.00003747829103
N          -1.58190907375414   -1.13049004773765   -0.00009480394525
H           0.90582840916423   -2.48482814373280   -0.00013819477756
H           0.93261334801495    2.51964489864804    0.00074581560145
H           3.04453827772884    1.22930251418536    0.00068183301544
H           3.03462422004470   -1.21095432887552    0.00025132674603
H          -1.93707520168337    2.03667765009830    0.00043435041408
H          -3.37947591255575   -0.05718560515205   -0.00004550940584
