22
 SCF done        -32.360129205050          0.000766394304
C          -1.15938805702654   -1.41651330412565    0.03156011538192
C          -2.34463997946182   -0.73434954316803   -0.00294318766176
C          -2.36579656390377    0.66816495493987   -0.07621318333937
C          -1.20170150046434    1.38572317066619   -0.11415443211903
C           0.03318314741038    0.71161327868917   -0.08108794827902
C           0.05455321084424   -0.70567862146002   -0.00799303871186
N           1.23099926498919   -1.37047711976511    0.02135904333148
C           2.33719705689448   -0.67686807871969   -0.02004314785288
C           2.31566373856064    0.75054258378635   -0.09164212551772
N           1.18899551165267    1.41109344851362   -0.12008423195161
C           3.58011058917722    1.54395042098146   -0.13693805238927
C           3.62484705498848   -1.43275456182840    0.00806672079771
H          -1.12084512459634   -2.49333481041758    0.08767614264742
H          -3.28030278309473   -1.27357585919021    0.02592509947012
H          -3.31728103649360    1.17901408694165   -0.10253594804070
H          -1.19585122878467    2.46323617019308   -0.17002820316424
H           4.17852224816163    1.25682431446057   -1.00030173691520
H           4.17304123150266    1.36517875958110    0.75894076230883
H           3.33732231898330    2.60073747007223   -0.20240612636109
H           3.41414030862654   -2.49588025146411    0.08209774759698
H           4.23019331752738   -1.12367923177570    0.85905598186320
H           4.19640727450704   -1.24156727691074   -0.89936025109384
