20
 SCF done        -38.792016002617          0.000660636090
C          -0.73251387312493    1.18839110363967   -0.03032621406617
C           0.64819212396129    1.20161959093608   -0.02786295599327
F           1.26947821850288    2.39768827573309   -0.02506845758807
C           1.41784540595073    0.03591946786027   -0.02967060229568
O           2.76592817761208    0.17526847404684   -0.03242958048669
C           3.55507020292503   -0.99045929198669   -0.05164007882632
C           0.72769599598124   -1.17253741449448   -0.02948139529285
C          -0.65300882740160   -1.18576905439894   -0.03140328010846
C          -1.42265647215239   -0.02006061078869   -0.03421587778739
O          -2.77071494494741   -0.15941142074167   -0.04146621991811
C          -3.55980836345927    1.00633682144193   -0.06148229433128
F          -1.27431116809037   -2.38182596061746   -0.03204551207473
H          -1.24552870806264    2.13536589247143   -0.02961364104302
H           4.58665853748709   -0.64306251309037   -0.06327582453685
H           3.36326185485079   -1.58853843859821   -0.94775676631258
H           3.38786754859876   -1.60220300337821    0.84011823897982
H           1.24071879927606   -2.11950848681390   -0.02832664853057
H          -4.59134148303649    0.65893676965664   -0.07719372411807
H          -3.36496652910705    1.60588773643590   -0.95595931727910
H          -3.39564649576378    1.61662206268675    0.83185015160941
