14
 SCF done        -24.802645124643          0.000697310832
C           0.68232015210446    1.45303702004577    0.00313189308399
C          -0.25962768606173    0.46969112991480    0.00176680759570
C           0.32720134729058   -0.84852101287376   -0.00188403308066
S          -0.93105644551375   -2.04101444867032   -0.00329179779896
C          -2.11500183776954   -0.69245480288964    0.00091868812779
N          -1.62355730915493    0.48097973674646    0.00319761427187
C          -3.56075793460424   -1.00598731197420    0.00140951243435
C           1.68139844251459   -0.83879874974435   -0.00319473668429
S           2.26713839748163    0.78568030847425    0.00008356065377
H           0.54315114526323    2.51397888712850    0.00573104996086
H          -3.71837023938288   -2.08100023503879    0.00326457535155
H          -4.03225534444260   -0.57172981098272   -0.87920225412396
H          -4.03241887210368   -0.56836960056430    0.88022509380952
H           2.37090618437885   -1.65742110957171   -0.00573597360152
