13
 SCF done        -25.086810603297          0.000449066874
N          -1.04378284805201    1.29540833530601    0.00585683396690
C          -2.06579346113473    0.51873660391431    0.00462270565094
S          -1.74901698612885   -1.20489698006515    0.00038079252831
C          -0.07301147089699   -0.81895201584586    0.00103505782167
C           0.08681120379762    0.56767100227001    0.00400472154068
S           1.76345083686029    0.95180515565100    0.00428531624187
C           2.09410548016240   -0.79201668354396    0.00052716243108
N           1.05514916599284   -1.55021004876024   -0.00086420612450
C           3.48880364432825   -1.28479966501485   -0.00083961731399
H          -3.07460830103677    0.87872790586424    0.00553219704578
H           4.18430496226344   -0.45047722705599   -0.00126804663173
H           3.66233232937952   -1.90308359250231   -0.88054979299879
H           3.66396544446498   -1.90335279021721    0.87837687584177
