12
 SCF done        -21.354131586220          0.000292835555
C          -2.26046107886265   -0.06591185241360    0.00057801299823
C          -1.40791967544292   -1.12136538400364    0.00046832370614
C          -0.06599481432255   -0.68714105994014    0.00040705314864
C           0.07598652729314    0.69474946257129    0.00046049123191
S          -1.46588073957533    1.47389105550495    0.00056806355966
C           1.41791137210629    1.12897370945445    0.00040226985900
C           2.27045276803666    0.07352014317465    0.00030780866810
S           1.47587229578903   -1.46628271107289    0.00026317819576
H          -3.33219586023409   -0.08669322483882    0.00064089126658
H          -1.71499231383239   -2.15076162648698    0.00043012135984
H           1.72498398445105    2.15836991152573    0.00041866685103
H           3.34218753459377    0.09430157652502    0.00023511915511
