17
 SCF done        -28.277714621681          0.000241796828
C          -1.28941029519420    0.04938097493516   -0.00346191114418
C          -0.39627687648076    1.07353469535256   -0.00048853768563
O          -0.64318145565147    2.40603692800876    0.00321117192669
C          -1.99475228912109    2.79366154220519    0.00386397283119
C           0.96644524953907    0.60827179141310   -0.00165122478153
O           1.97669884953044    1.51154958481525    0.00099279810917
C           3.28311830696061    0.99167854154250   -0.00065015342673
C           1.04675666940394   -0.74824053425768   -0.00546082008202
S          -0.51016705307541   -1.48831182186859   -0.00770300346399
H          -2.35903288166542    0.08491746201123   -0.00348305481824
H          -1.99432790504121    3.88209801316864    0.00683944674823
H          -2.51441133785834    2.42492354544190    0.89461440914747
H          -2.51386029735579    2.42979316505876   -0.88920976301458
H           3.94842521164211    1.85310915923907    0.00186865950325
H           3.46996196468885    0.38688666276243   -0.89439029502705
H           3.47011292725702    0.38156947773838    0.88943291292703
H           1.91478121242163   -1.37424918756665   -0.00714460774908
