# ORCA input file
# SCF done       -199.597379383223          0.000942699518
! CAM-B3LYP def2-SVP def2/J RIJCOSX Grid4 TightSCF
%maxcore 5000
%tddft
    Mode sTDDFT
    Ethresh 5.0
    maxcore 5000
end

%pal
  nprocs 6
  end
* xyz 0 1
   C       -4.36460        -5.29307        -5.38925
   C       -5.17063        -4.23489        -5.78237
   F       -5.66520        -4.22344        -7.02492
   C       -5.47414        -3.18447        -4.91509
   F       -6.26226        -2.18768        -5.33523
   C       -4.96626        -3.16038        -3.62576
   C       -4.15525        -4.20785        -3.23582
   C       -3.85453        -5.27525        -4.10134
   C       -3.02034        -6.23884        -3.38318
   C       -2.86397        -7.56013        -3.71087
   C       -3.31762        -8.12621        -4.91976
   N       -3.65165        -8.61993        -5.90048
   C       -2.33281        -8.52517        -2.82696
   N       -1.99738        -9.36721        -2.12301
   C       -2.62935        -5.62146        -2.13664
   C       -3.46982        -4.41407        -1.93692
   O       -3.54078        -3.72640        -0.94605
   C       -1.63484        -5.93224        -1.25445
   C       -0.51072        -6.76084        -1.46945
   C        0.24702        -7.35705        -0.48110
   C        1.28260        -8.12362        -1.08847
   C        1.14114        -7.88915        -2.52186
   C        0.08250        -7.09791        -2.76517
   F        1.97765        -8.39055        -3.43787
   C        2.20042        -8.95221        -0.47657
   C        3.18449        -9.77390        -1.07551
   C        3.84750       -10.48843        -0.09113
   C        3.28265       -10.10057         1.20846
   C        2.32329        -9.19724         0.96845
   F        1.57316        -8.58149         1.88673
   C        4.87058       -11.42783        -0.31096
   C        5.45065       -12.19123         0.66324
   C        6.46801       -13.14061         0.45214
   N        6.93555       -13.91971         1.49319
   C        7.90221       -14.74572         1.02061
   C        8.78575       -15.75108         1.36801
   C        9.49037       -16.07879         0.19136
   N        9.03747       -15.28789        -0.84491
   C        8.06341       -14.46883        -0.37102
   C        7.16851       -13.47508        -0.72531
   C       10.50057       -17.05229         0.07564
   C       11.23955       -17.32111        -1.04263
   C       12.24267       -18.30516        -1.12036
   C       13.04635       -18.55447        -2.22096
   C       13.93484       -19.61504        -1.92254
   C       13.60853       -20.01105        -0.54563
   C       12.62259       -19.24499        -0.05939
   F       14.23783       -20.99300         0.10838
   C       14.91682       -20.16823        -2.72011
   C       15.79126       -21.24572        -2.41358
   C       16.63783       -21.45908        -3.48704
   C       16.30761       -20.48289        -4.52693
   C       15.28853       -19.73959        -4.06898
   F       14.68429       -18.73291        -4.71313
   C       17.64598       -22.43393        -3.64064
   C       17.96575       -23.38394        -2.71165
   C       18.99658       -24.33695        -2.82919
   C       19.68727       -24.79818        -3.91960
   C       20.99828       -25.45927        -3.68296
   O       21.44729       -25.82519        -2.62194
   C       21.64782       -25.52498        -5.01152
   C       20.75025       -25.06388        -5.98972
   C       21.14493       -24.99497        -7.31568
   C       22.43457       -25.39739        -7.63145
   C       23.31469       -25.86822        -6.65659
   C       22.92738       -25.93641        -5.32771
   F       24.54745       -26.25257        -7.00836
   F       22.84132       -25.32623        -8.90352
   C       19.47282       -24.74298        -5.34609
   C       18.27242       -24.65675        -6.00453
   C       17.02312       -24.58997        -5.35604
   N       15.98302       -24.55519        -4.87230
   C       18.13803       -24.69250        -7.40756
   N       17.97336       -24.69182        -8.54337
   H       -4.15607        -6.08290        -6.09262
   H       -5.20061        -2.34900        -2.95526
   H       -1.68699        -5.42558        -0.29589
   H        0.04666        -7.31105         0.57139
   H       -0.23700        -6.72305        -3.71795
   H        3.36841        -9.84621        -2.12936
   H        3.59291       -10.46613         2.16702
   H        5.19104       -11.55255        -1.33580
   H        5.10541       -12.08692         1.68303
   H        6.58519       -13.88131         2.43513
   H        8.93681       -16.20852         2.32485
   H        9.37065       -15.33600        -1.79176
   H        7.02247       -13.02693        -1.68653
   H       10.69430       -17.61388         0.97730
   H       11.07851       -16.74745        -1.94667
   H       13.00794       -18.02846        -3.15470
   H       12.18348       -19.30705         0.91615
   H       15.78021       -21.79411        -1.49314
   H       16.79664       -20.40733        -5.47859
   H       18.22366       -22.37764        -4.55474
   H       17.44422       -23.36767        -1.76530
   H       19.37066       -24.73845        -1.89085
   H       20.50324       -24.63625        -8.10384
   H       23.60622       -26.29799        -4.57197
*
