# ORCA input file
# SCF done       -215.568130735116          0.000796152750
! CAM-B3LYP def2-SVP def2/J RIJCOSX Grid4 TightSCF
%maxcore 5000
%tddft
    Mode sTDDFT
    Ethresh 5.0
    maxcore 5000
end

%pal
  nprocs 6
  end
* xyz 0 1
   C        0.78084        -0.61861        -3.78028
   C        0.59519         0.75535        -3.74005
   F        0.74603         1.46281        -4.86376
   C        0.25902         1.41459        -2.55615
   F        0.08353         2.74031        -2.56601
   C        0.10848         0.71137        -1.37154
   C        0.30257        -0.65566        -1.40757
   C        0.63148        -1.32741        -2.59927
   C        0.72655        -2.75974        -2.31917
   C        0.61731        -3.76591        -3.24153
   C        0.59956        -3.55149        -4.63553
   N        0.60715        -3.41950        -5.77513
   C        0.39960        -5.11781        -2.89355
   N        0.13893        -6.21200        -2.66776
   C        0.67930        -2.91860        -0.88232
   C        0.22865        -1.62913        -0.29263
   O       -0.07977        -1.42014         0.85550
   C        1.04324        -3.95639        -0.07673
   C        1.85882        -5.06792        -0.39544
   C        1.92217        -6.24529         0.31787
   C        2.87439        -7.11258        -0.29741
   C        3.42429        -6.34453        -1.41396
   C        2.83483        -5.14076        -1.48859
   F        4.39815        -6.79600        -2.20901
   C        3.22299        -8.39269         0.06995
   C        4.16014        -9.26010        -0.55327
   C        4.22287       -10.44416         0.15848
   C        3.28716       -10.34869         1.28683
   C        2.70314        -9.14498         1.22175
   F        1.79161        -8.65571         2.06522
   C        5.02854       -11.57707        -0.07737
   C        5.88633       -11.70473        -1.13394
   C        6.70666       -12.83687        -1.32067
   O        6.67949       -13.82553        -0.40692
   C        7.55504       -14.78492        -0.77194
   C        8.18108       -14.41365        -1.98619
   C        7.63264       -13.16273        -2.33385
   C        7.95145       -12.33002        -3.52851
   F        7.26316       -11.18786        -3.59145
   F        9.25174       -11.97444        -3.57674
   F        7.70005       -12.97145        -4.68720
   O        9.08291       -15.23448        -2.51644
   C        9.74815       -14.94625        -3.73467
   C        7.78923       -15.94463        -0.01990
   C        7.15015       -16.26302         1.14738
   C        7.41998       -17.41892         1.90425
   C        8.36929       -18.40177         1.67275
   C        8.29331       -19.37446         2.70009
   C        7.21412       -18.91706         3.58815
   C        6.69783       -17.76708         3.13339
   F        6.84079       -19.57812         4.68720
   C        9.06332       -20.50765         2.85769
   C        8.98385       -21.49991         3.87406
   C        9.94901       -22.46260         3.64434
   C       10.69313       -22.08570         2.43964
   C       10.15892       -20.94151         1.98739
   F       10.55217       -20.25895         0.90554
   C       10.14481       -23.62487         4.41956
   C       11.14178       -24.53584         4.22345
   C       11.36335       -25.69040         5.00533
   C       10.51676       -26.40731         5.80490
   C       11.11210       -27.31703         6.82187
   O       12.27028       -27.65082         6.90641
   C        9.99582       -27.67432         7.72490
   C        8.79901       -27.13548         7.22122
   C        7.61300       -27.31020         7.91607
   C        7.65400       -28.03093         9.10056
   C        8.84392       -28.57592         9.58608
   C       10.03459       -28.40028         8.89913
   F        8.83445       -29.27071        10.72903
   F        6.52376       -28.20206         9.79352
   C        9.07939       -26.46385         5.94936
   C        8.13806       -26.18481         4.99301
   C        8.44372       -25.76412         3.68293
   N        8.63747       -25.44887         2.59686
   C        6.75077       -26.36152         5.17820
   N        5.61316       -26.47025         5.28107
   H        1.04175        -1.08521        -4.71642
   H       -0.15154         1.21989        -0.45685
   H        0.72561        -3.87437         0.95805
   H        1.31396        -6.49802         1.16413
   H        3.07087        -4.34963        -2.17293
   H        4.72199        -9.01385        -1.43177
   H        3.12004       -11.11999         2.01294
   H        4.95667       -12.38931         0.63328
   H        5.95135       -10.91297        -1.85950
   H       10.41100       -15.79448        -3.89668
   H       10.34267       -14.03408        -3.66245
   H        9.04679       -14.87375        -4.56752
   H        8.53859       -16.60243        -0.43225
   H        6.38972       -15.59001         1.51995
   H        9.06094       -18.43526         0.85545
   H        5.90295       -17.19011         3.56403
   H        8.27766       -21.49923         4.68151
   H       11.49910       -22.63744         1.99941
   H        9.46457       -23.75680         5.25215
   H       11.88665       -24.33088         3.46788
   H       12.38870       -26.05051         5.03339
   H        6.67062       -26.90598         7.58402
   H       10.95538       -28.81887         9.27290
*
