# ORCA input file
# SCF done       -199.244230832685          0.000848029487
! CAM-B3LYP def2-SVP def2/J RIJCOSX Grid4 TightSCF
%maxcore 5000
%tddft
    Mode sTDDFT
    Ethresh 5.0
    maxcore 5000
end

%pal
  nprocs 6
  end
* xyz 0 1
   C       -1.25564        -2.10569         3.72802
   C       -0.68882        -0.83984         3.75473
   F       -1.45605         0.20648         4.07646
   C        0.65733        -0.63315         3.45018
   F        1.16178         0.60515         3.48949
   C        1.47660        -1.69683         3.10627
   C        0.91339        -2.95734         3.08283
   C       -0.44141        -3.17398         3.38744
   C       -0.72470        -4.60209         3.26906
   C       -1.89249        -5.22731         3.62039
   C       -3.04187        -4.55265         4.08150
   N       -4.00465        -4.05105         4.45350
   C       -2.07179        -6.62711         3.61126
   N       -2.26223        -7.75810         3.66107
   C        0.48744        -5.25475         2.82561
   C        1.56000        -4.24266         2.73329
   O        2.69905        -4.39589         2.34778
   C        0.57036        -6.52207         2.31076
   C        1.72989        -7.28772         2.06302
   S        1.68699        -8.40308         0.71434
   C        3.24430        -9.05773         1.11268
   C        3.72688        -8.47158         2.28232
   C        2.90081        -7.46135         2.79362
   C        3.30428        -6.76822         4.05487
   C        4.62689        -6.05066         3.83198
   S        5.89874        -7.22655         3.24906
   O        6.41165        -6.79206         1.98151
   O        6.84533        -7.45531         4.30735
   C        4.98556        -8.80271         2.97791
   C        3.86746       -10.04929         0.32048
   C        3.41092       -10.45878        -0.89146
   C        4.01893       -11.45451        -1.69103
   N        3.60552       -11.67531        -2.98953
   C        4.35956       -12.66948        -3.52274
   C        4.59751       -13.40964        -4.67384
   C        5.62364       -14.31018        -4.35272
   N        6.00280       -14.12329        -3.03802
   C        5.26039       -13.11325        -2.51570
   C        5.05469       -12.34811        -1.37617
   C        6.20509       -15.26756        -5.21623
   C        7.05198       -16.26652        -4.85354
   C        7.63030       -17.17512        -5.77496
   S        7.54600       -16.87267        -7.48012
   C        8.39014       -18.35115        -7.83298
   C        8.70362       -19.04334        -6.65777
   C        8.30561       -18.36777        -5.49911
   C        8.50137       -18.86842        -4.09752
   C        9.68813       -19.80062        -3.97899
   S        9.33020       -21.19254        -5.08484
   O       10.39499       -22.15343        -5.03545
   O        7.99451       -21.64996        -4.83202
   C        9.39527       -20.36190        -6.70167
   C        8.69293       -18.71824        -9.15769
   C        8.44892       -17.92482       -10.24159
   C        8.77333       -18.31053       -11.55127
   C        8.57622       -17.60915       -12.71121
   C        9.34027       -17.99654       -13.92148
   O        9.96358       -19.01842       -14.09518
   C        9.22278       -16.84091       -14.84068
   C        8.37005       -15.87871       -14.27188
   C        8.14035       -14.68190       -14.93086
   C        8.76962       -14.47914       -16.15041
   C        9.60392       -15.44463       -16.71398
   C        9.84061       -16.64300       -16.05934
   F       10.18645       -15.20800       -17.89562
   F        8.57189       -13.32431       -16.79632
   C        7.84656       -16.39876       -13.00498
   C        6.73879       -15.90967       -12.36139
   C        6.05705       -16.55510       -11.30824
   N        5.42026       -17.03335       -10.48122
   C        6.06750       -14.72773       -12.73943
   N        5.49209       -13.76369       -12.97920
   H       -2.30169        -2.21515         3.96332
   H        2.51590        -1.53847         2.86640
   H       -0.35548        -6.99868         2.00733
   H        3.42469        -7.51270         4.84872
   H        2.54164        -6.05782         4.37424
   H        5.01805        -5.62221         4.74969
   H        4.53186        -5.29274         3.05993
   H        4.82510        -9.21712         3.97158
   H        5.64820        -9.44485         2.40764
   H        4.77878       -10.47546         0.71169
   H        2.52746        -9.98240        -1.29912
   H        2.88762       -11.14769        -3.45602
   H        4.10907       -13.34365        -5.62476
   H        6.74889       -14.61465        -2.57895
   H        5.55781       -12.41805        -0.43367
   H        5.91519       -15.18874        -6.25533
   H        7.28828       -16.42186        -3.81021
   H        7.60828       -19.42822        -3.80042
   H        8.61796       -18.02527        -3.41275
   H        9.80596       -20.18987        -2.97171
   H       10.62011       -19.35871        -4.31988
   H        8.92134       -21.03754        -7.41157
   H       10.45344       -20.27096        -6.94442
   H        9.14575       -19.68894        -9.30986
   H        8.02273       -16.94697       -10.07186
   H        9.32606       -19.23673       -11.67236
   H        7.50814       -13.90364       -14.53589
   H       10.48757       -17.38996       -16.49086
*
