# ORCA input file
# SCF done       -159.551159674231          0.000825915885
! CAM-B3LYP def2-SVP def2/J RIJCOSX Grid4 TightSCF
%maxcore 5000
%tddft
    Mode sTDDFT
    Ethresh 5.0
    maxcore 5000
end

%pal
  nprocs 6
  end
* xyz 0 1
   C        1.16920         4.23894        -7.01426
   S       -0.30337         3.66739        -7.71831
   C       -0.95990         3.38826        -6.14616
   C       -0.04692         3.73684        -5.14909
   C        1.17190         4.22340        -5.65469
   S       -0.66432         3.47909        -3.54306
   C       -2.16281         2.89807        -4.21751
   C       -3.34705         2.42882        -3.65660
   C       -4.27211         2.06989        -4.62057
   S       -3.65509         2.32539        -6.24915
   C       -2.16544         2.90829        -5.61998
   C       -5.57265         1.54941        -4.42626
   C       -6.21185         1.30545        -3.23020
   C       -7.50246         0.77377        -3.49693
   C       -7.59981         0.71190        -4.96090
   C       -6.47060         1.16989        -5.51984
   F       -8.67812         0.26012        -5.61086
   C       -8.47497         0.39554        -2.59712
   C       -9.76220        -0.14680        -2.86398
   C      -10.41648        -0.37637        -1.66818
   C       -9.52701         0.02973        -0.57570
   C       -8.39306         0.47655        -1.13616
   F       -7.31917         0.94227        -0.48536
   C      -11.71596        -0.90645        -1.53724
   C      -12.35779        -1.10974        -0.35121
   C      -13.66167        -1.63421        -0.24675
   C      -14.42805        -1.85551         0.90892
   N      -13.93873        -1.58418         2.21282
   O      -12.73362        -1.58376         2.39412
   O      -14.75220        -1.35898         3.08965
   C      -15.72844        -2.35527         0.66570
   C      -16.68152        -2.77667         1.73012
   C      -15.97721        -2.50528        -0.69098
   S      -14.59387        -2.04353        -1.65063
   C      -17.14143        -2.95335        -1.37392
   C      -17.16795        -3.42230        -2.66871
   C      -18.50579        -3.76066        -3.01933
   C      -19.30038        -3.42470        -1.83872
   C      -18.51146        -2.95257        -0.85900
   F      -20.63053        -3.56912        -1.77276
   C      -18.97286        -4.29571        -4.19960
   C      -20.30491        -4.64952        -4.54285
   C      -20.32326        -5.15581        -5.82673
   C      -18.95002        -5.13282        -6.34507
   C      -18.16766        -4.62661        -5.38285
   F      -16.84439        -4.43623        -5.45234
   C      -21.41376        -5.63555        -6.58956
   C      -22.70341        -5.67515        -6.15655
   C      -23.80068        -6.15387        -6.91103
   S      -25.40170        -6.11937        -6.17742
   C      -26.09820        -6.79668        -7.59596
   C      -25.12589        -7.03152        -8.57748
   C      -23.83633        -6.67123        -8.19390
   S      -25.79321        -7.71874       -10.03403
   C      -27.37864        -7.68695        -9.31777
   C      -28.65564        -8.06959        -9.76665
   C      -29.59922        -7.84233        -8.81502
   S      -28.97165        -7.16051        -7.35443
   C      -27.37923        -7.17126        -8.02094
   H        1.95795         4.55760        -7.66619
   H        1.99767         4.54114        -5.04622
   H       -3.53075         2.34722        -2.60209
   H       -5.81449         1.48059        -2.25097
   H       -6.23693         1.25278        -6.56354
   H      -10.15815        -0.34498        -3.84077
   H       -9.74946        -0.02926         0.47114
   H      -12.22471        -1.16495        -2.45883
   H      -11.85940        -0.87378         0.57719
   H      -16.14820        -3.07359         2.62976
   H      -17.28994        -3.60816         1.38506
   H      -17.32961        -1.94531         2.00746
   H      -16.31397        -3.54298        -3.30629
   H      -18.82873        -2.58900         0.09666
   H      -21.14786        -4.53283        -3.89180
   H      -18.65589        -5.46705        -7.32109
   H      -21.18057        -5.99078        -7.58403
   H      -22.93531        -5.31873        -5.16286
   H      -22.97126        -6.78181        -8.82009
   H      -28.85856        -8.48759       -10.73517
   H      -30.65185        -8.03518        -8.87794
*
