# ORCA input file
# SCF done       -181.463674973367          0.000263763486
! CAM-B3LYP def2-SVP def2/J RIJCOSX Grid4 TightSCF
%maxcore 5000
%tddft
    Mode sTDDFT
    Ethresh 5.0
    maxcore 5000
end

%pal
  nprocs 6
  end
* xyz 0 1
   C        1.61765         5.85951         1.24269
   S        1.05319         4.48643         0.35236
   C       -0.08281         4.13003         1.60105
   C        0.00327         5.05419         2.64115
   C        0.98147         6.04404         2.42862
   S       -1.13202         4.73793         3.92185
   C       -1.72981         3.35621         3.04727
   C       -2.73529         2.41779         3.30042
   C       -2.85159         1.50096         2.28152
   S       -1.69487         1.79330         0.98885
   C       -1.07046         3.16227         1.83212
   C       -3.78174         0.43259         2.18180
   S       -4.98328         0.16437         3.42605
   C       -3.94581        -0.50517         1.19085
   C       -3.29797        -0.84049        -0.11689
   N       -3.68540         0.10833        -1.13537
   C       -2.99139        -0.09416        -2.39644
   C       -3.46782         0.91805        -3.42501
   O       -3.81541        -2.12352        -0.43309
   C       -5.03899        -2.36833         0.24624
   O       -5.11885        -3.70673         0.59357
   C       -5.00787        -1.39311         1.39890
   C       -5.70238        -1.18780         2.56857
   C       -6.84817        -1.83181         3.10448
   C       -7.59495        -2.72726         2.41561
   C       -8.76489        -3.32934         2.95791
   O       -8.99655        -3.24571         4.27937
   C      -10.15403        -3.88524         4.55853
   C      -10.70879        -4.39087         3.37820
   C       -9.80819        -4.03230         2.34298
   C       -9.95690        -4.26665         0.88211
   F       -9.05544        -3.62196         0.13527
   F       -9.85610        -5.56869         0.53814
   F      -11.15809        -3.86023         0.41575
   O      -11.87450        -5.05702         3.42333
   C      -12.30365        -5.84789         2.32988
   C      -10.66381        -4.02435         5.87288
   C      -10.01342        -3.65927         7.00389
   C      -10.52924        -3.84714         8.31248
   S       -9.49037        -3.59809         9.70478
   C      -11.77459        -4.24392         8.75113
   C      -13.11118        -4.54801         8.14747
   N      -13.70741        -3.34145         7.62440
   C      -14.92194        -3.57346         6.86197
   C      -15.48662        -2.25291         6.36415
   O      -13.88508        -5.04630         9.23180
   C      -13.30021        -4.73839        10.48896
   O      -13.40967        -5.82448        11.34493
   C      -11.89442        -4.32852        10.13979
   C      -10.74783        -4.03957        10.84306
   C      -10.55210        -4.12486        12.24371
   C       -9.38286        -3.88156        12.87657
   C       -9.17628        -4.02829        14.27358
   S      -10.47193        -4.56185        15.33702
   C       -9.41212        -4.50013        16.69402
   C       -8.13129        -4.08273        16.32431
   C       -7.99934        -3.81654        14.95916
   S       -7.03001        -4.01563        17.67348
   C       -8.30102        -4.55446        18.73353
   C       -8.36911        -4.82218        20.11363
   C       -9.61359        -5.23158        20.47340
   S      -10.73406        -5.30365        19.15552
   C       -9.50655        -4.76807        18.06727
   H        2.40171         6.45500         0.81938
   H        1.19563         6.84217         3.11454
   H       -3.35656         2.40299         4.17688
   H       -2.19679        -0.95796        -0.04449
   H       -3.53795         1.05616        -0.80276
   H       -3.22652        -1.10941        -2.72388
   H       -1.89668        -0.01983        -2.27114
   H       -4.54480         0.84465        -3.54601
   H       -2.99007         0.73000        -4.38266
   H       -3.22224         1.92905        -3.10597
   H       -5.89841        -2.17243        -0.41556
   H       -4.25702        -3.98834         0.92548
   H       -7.14539        -1.53850         4.10173
   H       -7.31440        -3.00104         1.41359
   H      -13.13549        -6.43547         2.71554
   H      -11.51544        -6.52070         1.98686
   H      -12.65739        -5.23248         1.50083
   H      -11.62775        -4.50579         5.91628
   H       -9.02702        -3.22392         6.92923
   H      -13.08449        -5.36686         7.39731
   H      -13.02805        -2.83508         7.06522
   H      -15.62927        -4.06005         7.53753
   H      -14.74227        -4.25203         6.00838
   H      -15.65872        -1.58431         7.20276
   H      -16.42667        -2.41941         5.84520
   H      -14.78980        -1.77566         5.67774
   H      -13.84627        -3.91820        10.98158
   H      -13.16992        -6.62398        10.85954
   H      -11.42094        -4.44195        12.80711
   H       -8.52115        -3.56742        12.30064
   H       -7.09083        -3.48902        14.48847
   H       -7.54415        -4.71722        20.79334
   H       -9.95707        -5.50377        21.45145
*
