# ORCA input file
# SCF done       -134.626931189568          0.000719225970
! CAM-B3LYP def2-SVP def2/J RIJCOSX Grid4 TightSCF
%maxcore 5000
%tddft
    Mode sTDDFT
    Ethresh 5.0
    maxcore 5000
end

%pal
  nprocs 6
  end
* xyz 0 1
   C        1.57346        -0.62704        -0.88806
   S        2.24991         0.82200        -1.51008
   C        1.21443         1.78987        -0.48544
   C        0.40615         0.98936         0.28960
   C        0.61495        -0.39448         0.04864
   C       -0.13310        -1.46795         0.77826
   C       -1.37788        -0.90051         1.45856
   C       -1.03811         0.37034         2.24898
   O       -0.07583         0.13769         3.25064
   C       -0.59558         1.48278         1.28686
   C        1.29925         3.21639        -0.56587
   N        2.31197         3.82719        -1.24093
   C        2.15884         5.18366        -1.19259
   C        1.00663         5.44752        -0.46233
   C        0.47098         4.22153        -0.07248
   C        3.05897         6.04099        -1.80833
   C        3.87555         6.73931        -2.37281
   C        4.82125         7.51501        -3.02922
   O        4.69966         8.85018        -3.07134
   C        5.74639         9.34953        -3.77234
   C        6.57166         8.30565        -4.19532
   C        5.97152         7.11256        -3.71403
   C        6.38855         5.69676        -3.86230
   F        5.54051         4.83429        -3.28067
   F        6.47760         5.29636        -5.14959
   F        7.59664         5.43072        -3.31789
   O        7.67732         8.57159        -4.91612
   C        8.56778         7.53336        -5.26947
   C        5.90120        10.74189        -4.00465
   C        5.05281        11.68918        -3.54542
   C        5.19435        13.08420        -3.78341
   N        4.31314        13.99499        -3.27158
   C        4.66714        15.25649        -3.65311
   C        5.81297        15.15083        -4.43634
   C        6.13986        13.80140        -4.51494
   C        3.95896        16.39471        -3.28416
   C        3.35083        17.39433        -2.96338
   C        2.67014        18.55292        -2.61569
   S        3.06500        20.08523        -3.35530
   C        1.85723        20.87099        -2.41737
   C        1.18688        20.01839        -1.59274
   C        1.65011        18.68473        -1.70127
   C        1.10990        17.56378        -0.86970
   C       -0.21333        17.95671        -0.21098
   C       -0.13247        19.35438         0.42196
   O        0.86711        19.43857         1.41015
   C        0.06679        20.40757        -0.67767
   H        1.92634        -1.57071        -1.25378
   H        0.52218        -1.92131         1.53023
   H       -0.41400        -2.26244         0.08352
   H       -1.79846        -1.64755         2.13280
   H       -2.13057        -0.64902         0.70980
   H       -1.92649         0.70455         2.79638
   H        0.76151        -0.07050         2.82050
   H       -0.16785         2.30138         1.87075
   H       -1.47398         1.86741         0.76065
   H        3.06640         3.35588        -1.71396
   H        0.61104         6.41984        -0.24627
   H       -0.43103         4.08795         0.48714
   H        9.37690         8.02539        -5.80652
   H        8.09533         6.80177        -5.92782
   H        8.97388         7.03400        -4.38721
   H        6.76739        11.00330        -4.59105
   H        4.19926        11.38090        -2.95496
   H        3.51836        13.76950        -2.69629
   H        6.33416        15.97209        -4.88695
   H        6.97059        13.38206        -5.04587
   H        1.70832        21.92619        -2.53342
   H        1.84317        17.29972        -0.09864
   H        0.97299        16.67358        -1.48890
   H       -0.46811        17.22559         0.55738
   H       -1.01133        17.96452        -0.95512
   H       -1.06588        19.56329         0.95644
   H        1.72452        19.34787         0.97809
   H        0.27159        21.37830        -0.22050
   H       -0.85836        20.50052        -1.25362
*
