# ORCA input file
# SCF done       -163.831765115389          0.000730587889
! CAM-B3LYP def2-SVP def2/J RIJCOSX Grid4 TightSCF
%maxcore 5000
%tddft
    Mode sTDDFT
    Ethresh 5.0
    maxcore 5000
end

%pal
  nprocs 6
  end
* xyz 0 1
   C        0.16845         3.24608         5.62209
   C        0.47572         4.60039         5.70850
   C        0.68275         5.39096         4.52728
   N        0.93574         6.71005         4.65200
   C        1.02727         7.21806         5.85038
   C        0.86442         6.42961         7.00893
   N        0.58247         5.16160         6.93973
   C        0.60290         4.79583         3.23971
   C        0.24697         3.41923         3.18037
   C        0.04089         2.65139         4.37131
   N       -0.27084         1.33225         4.29415
   C       -0.37667         0.80478         3.10980
   C       -0.19321         1.56480         1.93369
   N        0.10948         2.83314         1.97176
   C        0.84871         5.46116         2.00570
   C        1.35718         6.71462         1.85167
   C        1.58978         7.39346         0.63923
   C        1.14215         7.19276        -0.68359
   C        1.69588         8.13690        -1.60088
   C        1.37640         8.05816        -2.96863
   C        0.51397         7.09105        -3.40521
   C       -0.07520         6.19539        -2.49718
   C        0.22112         6.24130        -1.16193
   C        2.55088         9.07475        -0.98624
   S        2.64633         8.77403         0.71415
   C        3.26808        10.10747        -1.61979
   C        4.15061        10.93372        -0.99332
   C        4.93928        11.93462        -1.60759
   S        5.61747        13.18625        -0.60228
   C        6.27431        13.97753        -1.97710
   C        6.00492        13.34299        -3.14936
   C        6.52300        13.83207        -4.46177
   C        5.24621        12.14745        -2.95546
   C        4.90896        11.19139        -3.96988
   C        4.57529        11.45491        -5.25604
   C        4.18554        10.44235        -6.16567
   C        3.79560        10.68902        -7.44624
   C        3.32529         9.71536        -8.34695
   C        2.98492         9.89035        -9.70396
   C        2.50774         8.69761       -10.32772
   C        2.21740         8.72421       -11.70488
   C        2.34056         9.89430       -12.40428
   C        2.76349        11.07654       -11.77567
   C        3.09432        11.07794       -10.44899
   C        2.44141         7.60547        -9.43438
   S        3.05289         8.07265        -7.87255
   C        1.97366         6.28328        -9.55257
   C        1.22285         5.77130       -10.56891
   C        0.75436         4.43771       -10.70631
   C       -0.06867         4.15149       -11.83164
   C       -0.66187         2.86619       -12.01662
   N       -1.44680         2.63669       -13.09612
   C       -1.64324         3.60950       -13.93881
   C       -1.05564         4.87683       -13.75627
   N       -0.28817         5.13238       -12.73305
   C       -0.46359         1.81870       -11.08740
   C        0.41927         2.06948       -10.01311
   C        1.02178         3.35960        -9.82055
   N        1.85615         3.55510        -8.77978
   C        2.08797         2.56875        -7.95794
   C        1.51488         1.30014        -8.15800
   N        0.71739         1.06378        -9.15983
   C       -1.17332         0.57941       -11.30786
   C       -1.31625        -0.43570       -10.45630
   H        0.03653         2.66313         6.51830
   H        1.22021         8.28112         5.91123
   H        0.94895         6.85876         7.99879
   H       -0.62354        -0.24790         3.06419
   H       -0.30533         1.12182         0.95283
   H        0.65502         4.84370         1.14156
   H        1.65886         7.24613         2.74417
   H        1.80685         8.76131        -3.66538
   H        0.26725         7.02028        -4.45398
   H       -0.77839         5.46312        -2.86493
   H       -0.26230         5.56451        -0.47802
   H        3.06862        10.24074        -2.67195
   H        4.24949        10.85282         0.08276
   H        6.84040        14.87824        -1.84028
   H        7.36769        14.49881        -4.30420
   H        5.75223        14.38641        -4.99729
   H        6.83981        12.99571        -5.08146
   H        4.90602        10.15699        -3.64667
   H        4.52428        12.47445        -5.60894
   H        4.17801         9.42030        -5.80634
   H        3.83513        11.70563        -7.81460
   H        1.92340         7.82368       -12.21629
   H        2.11761         9.91230       -13.46060
   H        2.84393        11.98419       -12.35498
   H        3.44709        11.98009        -9.97329
   H        2.20954         5.63059        -8.72324
   H        0.88478         6.41624       -11.36524
   H       -2.26925         3.39375       -14.79470
   H       -1.20695         5.68091       -14.46431
   H        2.76273         2.76916        -7.13605
   H        1.73424         0.46690        -7.50296
   H       -1.65113         0.53653       -12.27812
   H       -0.88322        -0.42190        -9.47288
   H       -1.87107        -1.31447       -10.74034
*
