# ORCA input file
# SCF done       -157.689110646938          0.000245687682
! CAM-B3LYP def2-SVP def2/J RIJCOSX Grid4 TightSCF
%maxcore 5000
%tddft
    Mode sTDDFT
    Ethresh 5.0
    maxcore 5000
end

%pal
  nprocs 6
  end
* xyz 0 1
   C       -3.08752         0.67846         3.02287
   C       -2.31025         1.54249         3.78625
   C       -1.52159         2.55672         3.15370
   N       -0.77123         3.39041         3.90737
   C       -0.79105         3.23643         5.20057
   C       -1.56781         2.23178         5.82287
   N       -2.30645         1.41004         5.13811
   C       -1.50666         2.70833         1.74109
   C       -2.31246         1.82009         0.98356
   C       -3.09520         0.80911         1.63780
   N       -3.86081        -0.04633         0.91257
   C       -3.86037         0.08402        -0.38060
   C       -3.09680         1.08154        -1.02741
   N       -2.35064         1.91726        -0.36280
   C       -0.67510         3.73329         1.19951
   C       -0.48848         4.04240        -0.10665
   C        0.38928         5.06027        -0.54516
   C        0.66803         5.40807        -1.86113
   C        1.61887         6.44602        -1.97257
   S        2.35671         6.98234        -3.48049
   C        0.94610         6.69690        -4.59750
   C        0.62268         5.22370        -4.66854
   S       -0.20300         4.60890        -3.15819
   C        2.04666         6.91879        -0.74476
   S        1.32006         6.03295         0.56337
   C        2.94812         7.99396        -0.46142
   S        4.12818         7.84221         0.80172
   C        4.72681         9.41718         0.46281
   C        4.07782        10.03532        -0.55868
   C        4.39829        11.42129        -1.01066
   C        3.03096         9.22495        -1.09446
   C        2.07827         9.59748        -2.10912
   C        2.32987        10.32527        -3.21338
   C        1.37844        10.51825        -4.26661
   C        0.03687        10.47484        -4.12268
   C       -0.92813        10.56662        -5.17065
   C       -0.83928        10.27245        -6.51462
   C       -2.03906        10.48259        -7.22958
   S       -2.18771        10.17821        -8.94404
   C       -0.51259        10.63921        -9.63032
   C        0.57280        10.93426        -8.63260
   S        0.60807         9.66397        -7.31808
   C       -3.07254        10.95329        -6.42035
   S       -2.52079        11.15932        -4.78062
   C       -4.42580        11.26957        -6.72496
   C       -5.11769        10.74736        -7.84039
   C       -6.45262        11.16584        -8.16702
   N       -7.06089        10.62505        -9.24650
   C       -6.43090         9.72096        -9.94079
   C       -5.14350         9.27688        -9.59058
   N       -4.51657         9.78976        -8.56677
   C       -7.13948        12.10592        -7.36888
   C       -6.49322        12.53153        -6.18435
   C       -5.16886        12.10683        -5.85782
   N       -4.59544        12.50090        -4.70891
   C       -5.25681        13.28818        -3.90718
   C       -6.55291        13.73020        -4.23971
   N       -7.14705        13.35952        -5.33794
   C       -8.45282        12.64120        -7.65010
   C       -9.16654        12.49058        -8.76514
   H       -3.67760        -0.08753         3.49794
   H       -0.18217         3.91780         5.77989
   H       -1.57364         2.11375         6.89865
   H       -4.47489        -0.60719        -0.94242
   H       -3.10387         1.19050        -2.10402
   H       -0.13705         4.30267         1.94865
   H       -1.01300         3.49404        -0.87642
   H        1.26759         7.07508        -5.56778
   H        0.09930         7.28785        -4.24795
   H        1.52658         4.63530        -4.83010
   H       -0.09236         5.01644        -5.46531
   H        5.53544         9.80403         1.05143
   H        4.93517        11.95575        -0.23059
   H        3.48568        11.96164        -1.25288
   H        5.02874        11.39664        -1.89927
   H        1.09603         9.15771        -1.98659
   H        3.33219        10.67751        -3.40536
   H        1.79779        10.69797        -5.24603
   H       -0.38935        10.42509        -3.12859
   H       -0.69314        11.50367       -10.27018
   H       -0.24328         9.78501       -10.25090
   H        0.42840        11.89680        -8.14047
   H        1.55223        10.91317        -9.11014
   H       -6.95782         9.30842       -10.79099
   H       -4.62784         8.50118       -10.13814
   H       -4.76802        13.57489        -2.98688
   H       -7.10769        14.39076        -3.58688
   H       -8.84212        13.24410        -6.84010
   H       -8.80778        11.91665        -9.59964
   H      -10.13874        12.94558        -8.85698
*
