# ORCA input file
# SCF done       -184.589868259913          0.000661899078
! CAM-B3LYP def2-SVP def2/J RIJCOSX Grid4 TightSCF
%maxcore 5000
%tddft
    Mode sTDDFT
    Ethresh 5.0
    maxcore 5000
end

%pal
  nprocs 6
  end
* xyz 0 1
   C       -6.55091        -4.02605         8.22303
   C       -5.72660        -4.22282         9.32075
   C       -4.34492        -4.21682         9.19005
   C       -3.74673        -4.00842         7.95669
   C       -4.55940        -3.81634         6.85168
   C       -5.96785        -3.82693         6.98138
   C       -6.56643        -3.61023         5.67057
   C       -7.89589        -3.42870         5.40603
   C       -8.90825        -3.43910         6.38898
   N       -9.77734        -3.43719         7.13858
   C       -8.43402        -3.16132         4.12873
   N       -8.93704        -2.93225         3.12242
   C       -5.47042        -3.61738         4.70693
   C       -4.23182        -3.52505         5.46611
   C       -3.04222        -3.03290         4.99658
   C       -2.93893        -2.36418         3.75582
   N       -2.86262        -1.74403         2.79366
   C       -1.84579        -3.05194         5.73528
   N       -0.82963        -3.10673         6.26909
   C       -5.59743        -3.88902         3.37617
   C       -4.55185        -4.28401         2.49402
   C       -4.74513        -4.40816         1.19357
   C       -4.89823        -4.47794        -0.08470
   C       -4.57362        -3.34052        -1.04723
   C       -4.75089        -4.01263        -2.36365
   C       -5.18191        -5.27974        -2.26309
   C       -5.38433        -5.70559        -0.84713
   C       -5.26632        -5.88182        -3.58577
   C       -4.88220        -4.93296        -4.47764
   C       -4.54159        -3.64465        -3.79013
   C       -5.58374        -7.25076        -3.89483
   C       -6.19103        -8.12445        -3.07795
   C       -6.33394        -9.52475        -3.39911
   S       -7.84583       -10.34254        -3.13778
   C       -7.22579       -11.78452        -3.84455
   C       -5.93676       -11.66331        -4.25195
   C       -5.13999       -12.76026        -4.87594
   C       -5.40574       -10.36516        -3.98061
   C       -4.02205        -9.99419        -4.20788
   C       -3.32878        -9.25373        -3.32633
   C       -2.02462        -8.68521        -3.48746
   C       -1.16895        -8.84266        -4.51440
   C        0.05381        -8.07569        -4.62291
   C        0.26915        -7.00123        -3.90209
   C        0.32874        -5.93044        -3.17572
   C       -0.17707        -4.56115        -3.62337
   C        0.16344        -3.71780        -2.44751
   C        0.74458        -4.40288        -1.44891
   C        0.91072        -5.85083        -1.76700
   C        1.07939        -3.49240        -0.36451
   C        0.68515        -2.24398        -0.74874
   C        0.04830        -2.27478        -2.09989
   C        1.67480        -3.79057         0.90062
   C        1.85849        -5.03148         1.40545
   C        2.46909        -5.35627         2.65088
   C        2.61711        -4.60406         3.77949
   C        3.58638        -4.90230         4.83200
   C        4.16501        -6.11094         5.10848
   C        3.87534        -7.32549         4.45015
   N        3.68603        -8.35276         3.97287
   C        5.10629        -6.32148         6.13880
   N        5.87692        -6.56414         6.95409
   C        3.81426        -3.65820         5.55371
   C        2.89904        -2.68453         5.09122
   C        2.90361        -1.40367         5.61900
   C        3.82921        -1.09822         6.60466
   C        4.72781        -2.05264         7.06133
   C        4.72919        -3.33947         6.54519
   C        2.03227        -3.30553         4.10486
   C        0.78702        -2.86807         3.74450
   C        0.29349        -1.58144         4.04269
   N       -0.11824        -0.52395         4.21337
   C       -0.15373        -3.69704         3.10280
   N       -0.97934        -4.36862         2.67144
   H       -7.62179        -4.03406         8.34344
   H       -6.17000        -4.38405        10.29143
   H       -3.72522        -4.37574        10.05933
   H       -2.67244        -4.00759         7.86471
   H       -6.59165        -3.89925         2.95042
   H       -3.57551        -4.53046         2.89422
   H       -3.55892        -2.97052        -0.88010
   H       -5.26008        -2.50112        -0.90267
   H       -4.80498        -6.59249        -0.58140
   H       -6.43495        -5.90395        -0.61649
   H       -4.82856        -5.05225        -5.54438
   H       -5.19869        -2.83285        -4.11139
   H       -3.51707        -3.32933        -4.00188
   H       -5.24719        -7.59188        -4.86559
   H       -6.63192        -7.79629        -2.14662
   H       -7.86111       -12.64556        -3.91347
   H       -5.72690       -13.67327        -4.93295
   H       -4.24175       -12.95305        -4.29053
   H       -4.83243       -12.47959        -5.88314
   H       -3.56472       -10.35317        -5.11957
   H       -3.82701        -8.98622        -2.40303
   H       -1.72535        -8.00381        -2.70021
   H       -1.37227        -9.54357        -5.31104
   H        0.78751        -8.40159        -5.34961
   H       -1.25269        -4.59554        -3.82335
   H        0.31853        -4.22809        -4.53973
   H        0.34979        -6.49763        -1.08619
   H        1.95716        -6.16756        -1.74966
   H        0.77187        -1.34537        -0.16475
   H        0.56933        -1.62487        -2.80709
   H       -0.98771        -1.93005        -2.05569
   H        1.99823        -2.92424         1.46461
   H        1.59965        -5.88131         0.79053
   H        2.93379        -6.33443         2.66509
   H        2.21133        -0.65474         5.27076
   H        3.84922        -0.10307         7.02205
   H        5.43845        -1.79210         7.83082
   H        5.43402        -4.06760         6.91168
*
