# ORCA input file
# SCF done       -198.908600868500          0.000523512956
! CAM-B3LYP def2-SVP def2/J RIJCOSX Grid4 TightSCF
%maxcore 5000
%tddft
    Mode sTDDFT
    Ethresh 5.0
    maxcore 5000
end

%pal
  nprocs 6
  end
* xyz 0 1
   C        2.41356        -2.45914         6.19167
   C        1.23074        -2.78252         6.80375
   C        1.06380        -2.84544         8.20193
   N        0.88925        -2.93296         9.33296
   C        0.02256        -2.98588         6.10137
   N       -1.00030        -3.07906         5.58966
   C        3.60463        -1.93441         6.85612
   C        4.40621        -1.28554         5.89846
   C        5.58655        -0.66229         6.24778
   C        5.98125        -0.69566         7.57997
   C        5.19328        -1.34739         8.53543
   C        3.99880        -1.96652         8.18241
  Cl        5.70128        -1.39041        10.17472
  Cl        7.44600         0.06610         8.05240
   C        3.78382        -1.41591         4.56024
   O        4.16211        -0.93980         3.51616
   C        2.62006        -2.31648         4.76840
   C        2.00972        -2.91754         3.70548
   C        1.22148        -4.09011         3.70200
   C        0.38061        -4.49042         2.68241
   C       -0.20884        -5.73995         3.02824
   C        0.37652        -6.09422         4.31768
   C        1.21803        -5.13252         4.73110
   F        0.11631        -7.24073         4.95825
   C       -1.11929        -6.48698         2.30994
   C       -1.70385        -7.72731         2.65855
   C       -2.52635        -8.15321         1.62902
   C       -2.48803        -7.13982         0.56773
   C       -1.66560        -6.16648         0.98263
   F       -1.35170        -5.05704         0.30798
   C       -3.23999        -9.36488         1.61680
   C       -3.97466        -9.84430         0.56811
   C       -4.64422       -11.08277         0.54577
   N       -4.70911       -11.94535         1.62110
   C       -5.38759       -13.05794         1.24413
   C       -5.83217       -14.29250         1.67899
   C       -6.47350       -14.88937         0.57374
   N       -6.42375       -14.02184        -0.50025
   C       -5.76663       -12.89566        -0.12293
   C       -5.31065       -11.66254        -0.55372
   C       -7.05898       -16.16376         0.45734
   C       -7.16297       -17.06799         1.47757
   C       -7.68301       -18.36991         1.35256
   C       -8.12846       -19.03503         0.22074
   C       -8.50769       -20.35120         0.57368
   C       -8.28091       -20.44604         2.02299
   C       -7.79404       -19.28891         2.49029
   F       -8.53401       -21.54703         2.73767
   C       -8.95997       -21.36478        -0.24904
   C       -9.29539       -22.69917         0.10319
   C       -9.66445       -23.39237        -1.03784
   C       -9.57564       -22.47465        -2.17613
   C       -9.16365       -21.29070        -1.69605
   F       -8.95479       -20.17505        -2.40988
   C      -10.04340       -24.74762        -1.07859
   C      -10.37331       -25.44015        -2.21138
   C      -10.73037       -26.79877        -2.16404
   C      -11.05481       -27.56679        -3.25452
   C      -11.42467       -28.96667        -3.24955
   C      -11.55872       -29.78813        -2.15925
   C      -11.92735       -31.14823        -2.23251
   N      -12.22163       -32.25766        -2.21620
   C      -11.35922       -29.41302        -0.81401
   N      -11.22041       -29.19480         0.30511
   C      -11.64736       -29.36902        -4.63802
   C      -11.43860       -28.25855        -5.47338
   C      -11.06530       -27.08391        -4.65496
   O      -10.82156       -25.97015        -5.06826
   C      -11.57872       -28.34013        -6.84338
   C      -11.93557       -29.56295        -7.39772
   C      -12.14418       -30.67475        -6.57458
   C      -12.00281       -30.58705        -5.19381
  Cl      -12.58277       -32.18179        -7.27156
  Cl      -12.11940       -29.70737        -9.09888
   H        6.18661        -0.16233         5.50406
   H        3.41538        -2.46265         8.94118
   H        2.23023        -2.48261         2.73579
   H        0.16066        -3.92775         1.79630
   H        1.82740        -5.14728         5.61333
   H       -1.52474        -8.25666         3.57357
   H       -3.02813        -7.17674        -0.35722
   H       -3.15125        -9.95469         2.52048
   H       -4.04072        -9.26435        -0.34007
   H       -4.32091       -11.76154         2.52937
   H       -5.71444       -14.73303         2.64729
   H       -6.81186       -14.21793        -1.40708
   H       -5.41159       -11.21216        -1.52033
   H       -7.43785       -16.43442        -0.51877
   H       -6.81417       -16.78347         2.46041
   H       -8.16759       -18.64033        -0.77454
   H       -7.52843       -19.04994         3.50151
   H       -9.25856       -23.10512         1.09515
   H       -9.80219       -22.71676        -3.19516
   H      -10.06121       -25.26829        -0.12789
   H      -10.35963       -24.95166        -3.17279
   H      -10.74057       -27.26105        -1.18537
   H      -11.41408       -27.47463        -7.46541
   H      -12.17155       -31.46585        -4.59378
*
