# ORCA input file
# SCF done       -180.871801162044          0.000965896520
! CAM-B3LYP def2-SVP def2/J RIJCOSX Grid4 TightSCF
%maxcore 5000
%tddft
    Mode sTDDFT
    Ethresh 5.0
    maxcore 5000
end

%pal
  nprocs 6
  end
* xyz 0 1
   C       -0.81643        -1.71054         1.26430
   C       -1.38086        -2.05033         0.01974
   C       -0.68103        -1.71807        -1.13332
   C        0.55426        -1.07021        -1.06576
   C        1.10217        -0.74516         0.19342
   C        0.39510        -1.07398         1.35393
   N        2.31070        -0.11643         0.24883
   C        3.09526         0.25537        -0.82972
   O        4.15708         0.80848        -0.65117
   C        2.50329        -0.08948        -2.12959
   C        1.30101        -0.71606        -2.22641
   C        3.23129         0.25314        -3.29130
   N        3.80059         0.52173        -4.24880
   C       -2.65275        -2.73106        -0.04421
   C       -3.29976        -3.23033        -1.15091
   C       -4.51726        -3.84240        -0.82937
   C       -4.79924        -3.80329         0.54637
   S       -3.57115        -3.02013         1.43205
   C       -6.03864        -4.45147         0.77590
   C       -6.53601        -4.90160        -0.45724
   C       -5.59712        -4.52803        -1.50772
   C       -5.72295        -4.77585        -2.84573
   C       -6.83576        -5.45623        -3.37888
   N       -7.74464        -6.00813        -3.81078
   C       -4.74662        -4.36347        -3.77519
   N       -3.95028        -4.02402        -4.52781
   C       -7.75402        -5.56441        -0.34854
   C       -8.19886        -5.62966         0.96335
   S       -7.08349        -4.84490         2.07243
   C       -9.39795        -6.23170         1.44351
   C      -10.21842        -6.98044         0.63224
   C      -11.40644        -7.58582         1.03420
   C      -11.81855        -7.56662         2.44534
   C      -11.16851        -6.88771         3.41454
   S       -9.75844        -5.94774         3.14152
   C      -12.97166        -8.39627         2.51380
   C      -13.26578        -8.89492         1.24414
   C      -14.40844        -9.72492         1.24915
   C      -14.93798        -9.83465         2.49537
   S      -14.08270        -8.93886         3.70643
   C      -12.31389        -8.37417         0.29827
   C      -12.36391        -8.64826        -1.09066
   C      -11.78270        -7.91001        -2.07344
   C      -11.80266        -8.22575        -3.45333
   C      -12.33405        -9.33023        -4.10594
   C      -12.13225        -9.27086        -5.48127
   C      -11.43968        -8.11659        -5.88794
   S      -11.03772        -7.10698        -4.57460
   C      -11.29289        -8.15637        -7.29779
   C      -11.88775        -9.33220        -7.78141
   C      -12.43520       -10.07212        -6.66126
   C      -13.09989       -11.26408        -6.69908
   C      -13.33228       -11.95079        -7.90820
   N      -13.51976       -12.51011        -8.89204
   C      -13.59812       -11.88214        -5.53424
   N      -14.00644       -12.38191        -4.58589
   C      -11.79815        -9.45206        -9.17338
   C      -11.14949        -8.38491        -9.75129
   S      -10.63253        -7.20610        -8.54811
   C      -10.88192        -8.14614       -11.14990
   C      -11.12236        -9.14804       -12.11179
   C      -10.88375        -8.92704       -13.44454
   C      -10.39376        -7.69157       -13.87975
   C      -10.13947        -6.67633       -12.93355
   C      -10.38696        -6.92376       -11.58193
   C       -9.64352        -5.42994       -13.41145
   C       -9.42281        -5.21843       -14.73607
   C       -9.67832        -6.26044       -15.74001
   O       -9.50988        -6.15882       -16.93463
   N      -10.15483        -7.44233       -15.19890
   C       -8.93708        -3.97246       -15.19189
   N       -8.54759        -2.95005       -15.53219
   H       -1.35092        -1.96169         2.16856
   H       -1.08213        -1.95266        -2.10629
   H        0.81139        -0.82469         2.31857
   H        2.69622         0.11125         1.15867
   H        0.89371        -0.95640        -3.19894
   H       -2.91055        -3.16710        -2.14998
   H       -8.29299        -5.97012        -1.18388
   H       -9.88496        -7.14014        -0.38059
   H      -11.49792        -6.88021         4.44147
   H      -14.81838       -10.21662         0.38586
   H      -15.80016       -10.39744         2.79545
   H      -12.95981        -9.50663        -1.37117
   H      -11.28821        -6.98254        -1.82473
   H      -12.83740       -10.13041        -3.59599
   H      -12.20362       -10.27727        -9.72869
   H      -11.49412       -10.10970       -11.79737
   H      -11.07248        -9.70661       -14.16760
   H      -10.19126        -6.13658       -10.86838
   H       -9.44430        -4.64232       -12.69760
   H      -10.33988        -8.17848       -15.87137
*
