# ORCA input file
# SCF done       -211.257031408269          0.000523435192
! CAM-B3LYP def2-SVP def2/J RIJCOSX Grid4 TightSCF
%maxcore 5000
%tddft
    Mode sTDDFT
    Ethresh 5.0
    maxcore 5000
end

%pal
  nprocs 6
  end
* xyz 0 1
   C       -3.43482         3.28676         2.80328
   C       -3.07018         4.14622         1.77743
   C       -3.35992         3.84707         0.45356
   C       -4.03447         2.68304         0.11675
   C       -4.40776         1.82027         1.13359
   C       -4.10126         2.11489         2.48124
   C       -4.57739         1.02372         3.32122
   C       -4.59871         1.01640         4.69004
   C       -4.15450         2.09015         5.49163
   N       -3.81224         2.92283         6.20333
   C       -5.10477        -0.02398         5.49782
   N       -5.50231        -0.82663         6.21652
   C       -5.02672        -0.03455         2.42068
   C       -5.13318         0.55996         1.09219
   C       -5.97646         0.17413         0.08502
   C       -6.86867        -0.91411         0.16255
   N       -7.63872        -1.76555         0.18126
   C       -6.13031         0.88175        -1.12675
   N       -6.30314         1.41170        -2.12936
   C       -5.19118        -1.33868         2.80078
   C       -5.23625        -2.48359         1.97932
   C       -4.78535        -2.66228         0.67733
   C       -4.99392        -3.95470         0.22198
   C       -5.59921        -4.79025         1.18776
   S       -5.88780        -3.97808         2.65302
   C       -5.79558        -6.06570         0.60957
   C       -5.32942        -6.03769        -0.71859
   C       -4.81220        -4.70858        -1.00344
   C       -4.29419        -4.24881        -2.17937
   C       -4.17365        -5.07492        -3.31385
   N       -4.07184        -5.75718        -4.22996
   C       -3.84962        -2.91723        -2.31708
   N       -3.49002        -1.83256        -2.41164
   C       -5.49631        -7.25127        -1.37982
   C       -6.07818        -8.20860        -0.56473
   S       -6.42934        -7.59342         1.04282
   C       -6.38954        -9.54943        -0.89565
   C       -6.89616       -10.52564        -0.05613
   C       -7.07663       -11.73903        -0.71555
   C       -6.71226       -11.68621        -2.07443
   S       -6.13816       -10.14500        -2.53348
   C       -6.92902       -12.95993        -2.65373
   C       -7.42352       -13.82242        -1.65607
   C       -7.53476       -13.08361        -0.40853
   C       -7.97289       -13.55278         0.79502
   C       -8.39178       -14.88848         0.97004
   N       -8.73249       -15.97401         1.11170
   C       -8.03230       -12.73240         1.94128
   N       -8.07802       -12.06316         2.87113
   C       -7.66181       -15.11033        -2.12454
   C       -7.36266       -15.23519        -3.47246
   S       -6.77036       -13.72968        -4.16754
   C       -7.47204       -16.40660        -4.27665
   C       -7.23073       -16.38270        -5.63218
   C       -7.28682       -17.48475        -6.47918
   C       -7.70061       -18.79501        -5.96121
   C       -7.98969       -19.04566        -4.66392
   S       -7.91572       -17.87211        -3.41879
   C       -7.72805       -19.66399        -7.08645
   C       -7.35779       -18.95830        -8.23059
   C       -7.36282       -19.77296        -9.38359
   C       -7.73160       -21.04752        -9.08973
   S       -8.08257       -21.31236        -7.41498
   C       -7.05945       -17.59351        -7.87403
   C       -6.63647       -16.63666        -8.81611
   C       -6.15948       -15.38067        -8.56068
   C       -5.82707       -14.47119        -9.57540
   C       -5.44784       -13.17151        -9.33802
   C       -5.07046       -12.18689       -10.32829
   C       -4.95288       -12.37845       -11.68359
   C       -4.57315       -11.37265       -12.59537
   N       -4.27057       -10.60567       -13.39510
   C       -5.18093       -13.58928       -12.36696
   N       -5.34508       -14.53450       -12.99988
   C       -4.81087       -10.93131        -9.63149
   C       -5.01303       -11.13606        -8.23646
   C       -5.41227       -12.53232        -8.00278
   O       -5.67507       -13.03296        -6.92115
   C       -4.84501       -10.13122        -7.32772
   C       -4.45687        -8.84962        -7.77938
   C       -4.25261        -8.63728        -9.17364
   C       -4.43639        -9.69744       -10.09120
   C       -3.86604        -7.35681        -9.61711
   C       -3.68801        -6.33215        -8.72709
   C       -3.88890        -6.54197        -7.35551
   C       -4.26531        -7.77360        -6.89190
   H       -3.19275         3.53186         3.82423
   H       -2.54680         5.05936         2.01622
   H       -3.05509         4.52680        -0.32723
   H       -4.24426         2.45380        -0.91538
   H       -5.23557        -1.54450         3.86202
   H       -4.29243        -1.89056         0.11436
   H       -5.21354        -7.44849        -2.39817
   H       -7.11243       -10.34470         0.98156
   H       -8.03683       -15.92304        -1.52876
   H       -6.99841       -15.41207        -6.04321
   H       -8.28614       -20.02320        -4.31746
   H       -7.11050       -19.44386       -10.37506
   H       -7.82343       -21.87600        -9.76454
   H       -6.69550       -16.94962        -9.85283
   H       -6.01013       -15.04356        -7.55095
   H       -5.89873       -14.81877       -10.59772
   H       -5.00566       -10.31081        -6.27436
   H       -4.27588        -9.50190       -11.13940
   H       -3.71270        -7.20180       -10.67520
   H       -3.39128        -5.35460        -9.07718
   H       -3.74648        -5.72908        -6.66081
   H       -4.41846        -7.93084        -5.83486
*
