# ORCA input file
# SCF done       -189.948721116442          0.000980118087
! CAM-B3LYP def2-SVP def2/J RIJCOSX Grid4 TightSCF
%maxcore 5000
%tddft
    Mode sTDDFT
    Ethresh 5.0
    maxcore 5000
end

%pal
  nprocs 6
  end
* xyz 0 1
   C       -6.61422         3.47577         0.76517
   C       -7.30932         3.86350         1.90098
   C       -7.48178         2.99374         2.96893
   C       -6.95362         1.71181         2.93744
   C       -6.25384         1.31563         1.80997
   C       -6.08863         2.19401         0.71494
   C       -5.35057         1.50474        -0.33455
   C       -4.86333         2.07181        -1.48029
   C       -5.01524         3.43596        -1.81202
   N       -5.10243         4.53059        -2.14465
   C       -4.10640         1.40447        -2.46703
   N       -3.48142         0.92691        -3.30343
   C       -5.23456         0.10826         0.08301
   C       -5.58093         0.06389         1.50132
   C       -5.12311        -0.83424         2.42611
   C       -4.26061        -1.90870         2.12774
   N       -3.53509        -2.77807         1.93991
   C       -5.37798        -0.73383         3.81141
   N       -5.54544        -0.69957         4.94533
   C       -4.96882        -0.92032        -0.77527
   C       -5.21804        -2.29847        -0.58996
   C       -6.08551        -2.93360         0.28920
   C       -6.08818        -4.31062         0.12057
   C       -5.22423        -4.73951        -0.90735
   S       -4.42288        -3.44460        -1.66322
   C       -5.31032        -6.15139        -0.99669
   C       -6.21732        -6.61552        -0.02557
   C       -6.72489        -5.47399         0.71830
   C       -7.59074        -5.47209         1.77123
   C       -8.15873        -6.65334         2.29522
   N       -8.63181        -7.60550         2.72227
   C       -7.96923        -4.26614         2.39977
   N       -8.26763        -3.27363         2.89026
   C       -6.38244        -8.00035        -0.05953
   C       -5.61625        -8.58382        -1.04876
   S       -4.66510        -7.41320        -1.94238
   C       -5.59199        -9.97839        -1.39082
   N       -6.36691       -10.78070        -0.65012
   N       -6.46711       -12.03052        -0.90575
   C       -5.80060       -12.58860        -1.92408
   C       -4.92958       -11.82770        -2.72787
   C       -4.82255       -10.48909        -2.45431
   C       -6.04666       -13.98532        -2.15059
   C       -6.82464       -14.81490        -1.36812
   C       -6.90427       -16.10258        -1.89904
   C       -6.18055       -16.24298        -3.09807
   S       -5.39408       -14.80310        -3.55736
   C       -6.34617       -17.56460        -3.58259
   C       -7.17842       -18.26137        -2.68324
   C       -7.53807       -17.37368        -1.58833
   C       -8.28355       -17.69786        -0.49401
   C       -8.80674       -18.99854        -0.32924
   N       -9.22541       -20.06034        -0.21898
   C       -8.57308       -16.77450         0.53366
   N       -8.81777       -16.03152         1.37085
   C       -7.41197       -19.57319        -3.06947
   C       -6.76176       -19.89540        -4.25361
   S       -5.87090       -18.52427        -4.90311
   C       -6.79650       -21.09552        -4.99874
   C       -7.14828       -22.34115        -4.56266
   C       -7.58276       -23.42267        -5.44495
   C       -7.37945       -23.52619        -6.79404
   C       -6.65991       -22.60748        -7.58772
   N       -6.08341       -21.90649        -8.29108
   C       -7.83265       -24.60815        -7.58014
   N       -8.17331       -25.45192        -8.27905
   C       -8.28678       -24.38586        -4.60939
   C       -8.13770       -24.01157        -3.25452
   C       -8.73989       -24.74490        -2.24576
   C       -9.48614       -25.85990        -2.59649
   C       -9.62301       -26.23819        -3.92498
   C       -9.02846       -25.50840        -4.94355
   C       -7.29254       -22.82999        -3.19376
   C       -6.56013       -22.43939        -2.10620
   C       -6.64584       -23.05548        -0.83852
   N       -6.66338       -23.52282         0.20855
   C       -5.56138       -21.44480        -2.13603
   N       -4.71569       -20.66883        -2.11543
   H       -6.49904         4.16164        -0.05786
   H       -7.72745         4.85724         1.94901
   H       -8.03683         3.31614         3.83633
   H       -7.10331         1.03940         3.76648
   H       -4.58174        -0.66362        -1.75251
   H       -6.71492        -2.40385         0.98062
   H       -7.02170        -8.58315         0.57795
   H       -4.37259       -12.29328        -3.52772
   H       -4.17826        -9.83904        -3.02801
   H       -7.29871       -14.46427        -0.46981
   H       -8.05951       -20.25574        -2.54991
   H       -6.58122       -20.97740        -6.05238
   H       -8.64962       -24.45172        -1.21246
   H       -9.96849       -26.43828        -1.82369
   H      -10.20673       -27.11109        -4.17395
   H       -9.15418       -25.81244        -5.96958
*
