# ORCA input file
# SCF done       -195.393363256121          0.000605228308
! CAM-B3LYP def2-SVP def2/J RIJCOSX Grid4 TightSCF
%maxcore 5000
%tddft
    Mode sTDDFT
    Ethresh 5.0
    maxcore 5000
end

%pal
  nprocs 6
  end
* xyz 0 1
   C       -4.12318         3.60729        -0.69239
   C       -4.61409         4.22693         0.44732
   C       -4.83606         3.50986         1.61449
   C       -4.56239         2.15181         1.67989
   C       -4.06743         1.52400         0.54921
   C       -3.85387         2.24847        -0.64511
   C       -3.36821         1.33388        -1.67014
   C       -2.92595         1.69005        -2.91627
   C       -2.87452         3.02020        -3.38606
   N       -2.80414         4.07435        -3.83439
   C       -2.42045         0.80781        -3.89434
   N       -1.99552         0.15282        -4.73664
   C       -3.45251        -0.01067        -1.10784
   C       -3.67150         0.14214         0.32566
   C       -3.30702        -0.73950         1.30813
   C       -2.68093        -1.97987         1.07299
   N       -2.13758        -2.98267         0.94046
   C       -3.42057        -0.47013         2.68895
   N       -3.48372        -0.30935         3.82316
   C       -3.42690        -1.15310        -1.86167
   C       -3.89364        -2.43747        -1.51856
   C       -4.79005        -2.82978        -0.53113
   C       -5.03640        -4.19356        -0.55726
   C       -4.32881        -4.86281        -1.58045
   S       -3.38249        -3.80281        -2.51146
   C       -4.64482        -6.24094        -1.51117
   C       -5.53811        -6.44580        -0.44549
   C       -5.81617        -5.16736         0.18653
   C       -6.64000        -4.92478         1.24758
   C       -7.37707        -5.95651         1.86362
   N       -7.98420        -6.80613         2.33800
   C       -6.81084        -3.62347         1.76381
   N       -6.94132        -2.55739         2.16576
   C       -5.90451        -7.78420        -0.29283
   C       -5.31511        -8.60011        -1.23753
   S       -4.26484        -7.69591        -2.31868
   C       -5.42945       -10.02847        -1.39852
   C       -4.32974       -10.74728        -1.84192
   C       -4.36572       -12.12761        -1.98764
   C       -5.50601       -12.86408        -1.70717
   C       -6.67041       -12.18288        -1.24431
   C       -7.90322       -12.77506        -0.93390
  Si       -8.78462       -11.46427        -0.05200
   C       -7.89876       -10.13559        -0.88935
   C       -6.64688       -10.72300        -1.14120
   C       -5.51108       -14.27829        -1.98238
   C       -6.53399       -15.04109        -2.51000
   C       -6.14797       -16.36522        -2.72514
   C       -4.81467       -16.61533        -2.35714
   S       -4.04302       -15.21589        -1.75236
   C       -4.51167       -17.96950        -2.63863
   C       -5.66138       -18.57363        -3.19441
   C       -6.72839       -17.59001        -3.24869
   C       -8.01208       -17.79593        -3.66361
   C       -8.43639       -19.05470        -4.13822
   N       -8.75978       -20.08364        -4.52795
   C       -8.98206       -16.77330        -3.62840
   N       -9.76390       -15.93525        -3.58961
   C       -5.47606       -19.91145        -3.50329
   C       -4.19791       -20.35449        -3.18312
   S       -3.20969       -19.05464        -2.51451
   C       -3.59969       -21.61316        -3.38679
   C       -4.21108       -22.81122        -3.64368
   C       -3.53912       -23.94320        -4.27462
   C       -2.19099       -24.15635        -4.38478
   C       -1.18099       -23.32420        -3.85766
   N       -0.30636       -22.69881        -3.45386
   C       -1.61864       -25.28305        -5.01344
   N       -1.08469       -26.17025        -5.50840
   C       -4.58493       -24.82437        -4.77769
   C       -5.83675       -24.35154        -4.32392
   C       -7.01000       -24.99063        -4.68773
   C       -6.92640       -26.11006        -5.50229
   C       -5.69757       -26.58499        -5.93828
   C       -4.51651       -25.95011        -5.58329
   C       -5.61060       -23.18738        -3.48111
   C       -6.47649       -22.73191        -2.52297
   C       -7.77600       -23.24738        -2.32805
   N       -8.83644       -23.62950        -2.11406
   C       -6.15085       -21.76703        -1.54903
   N       -5.92871       -21.00969        -0.71515
   H       -3.96560         4.17937        -1.59173
   H       -4.83157         5.28369         0.42019
   H       -5.22933         4.01292         2.48445
   H       -4.74905         1.60156         2.58773
   H       -3.06760        -1.06571        -2.87849
   H       -5.26780        -2.13771         0.13847
   H       -6.52745        -8.15479         0.50031
   H       -3.41432       -10.22207        -2.07230
   H       -3.48774       -12.63738        -2.35715
   H       -7.98259       -13.84269        -0.81462
   H       -7.99642        -9.06893        -0.78433
   H       -7.48834       -14.63240        -2.78554
   H       -6.21043       -20.53154        -3.98428
   H       -2.51809       -21.59613        -3.40895
   H       -7.97001       -24.62242        -4.36426
   H       -7.83168       -26.61516        -5.80213
   H       -5.65646       -27.45924        -6.56980
   H       -3.57261       -26.32856        -5.93932
*
