# ORCA input file
# SCF done       -197.530250344068          0.000728212431
! CAM-B3LYP def2-SVP def2/J RIJCOSX Grid4 TightSCF
%maxcore 5000
%tddft
    Mode sTDDFT
    Ethresh 5.0
    maxcore 5000
end

%pal
  nprocs 6
  end
* xyz 0 1
   C       -2.98510        -0.78081        -2.68193
   C       -1.63808        -0.75351        -2.42851
   C       -0.70953        -1.65094        -2.99700
   N        0.09430        -2.34949        -3.42549
   C       -0.98343         0.14191        -1.55663
   N       -0.37767         0.82537        -0.86001
   C       -3.66104        -1.74688        -3.54265
   C       -5.05745        -1.51381        -3.47931
   C       -5.96960        -2.26189        -4.18303
   C       -5.47966        -3.28887        -4.99653
   C       -4.08345        -3.51349        -5.05757
   C       -3.16216        -2.75909        -4.34061
   S       -3.69365        -4.82410        -6.12853
   C       -5.38734        -5.04980        -6.47598
   C       -6.20493        -4.18937        -5.82328
  Br       -5.91590        -6.39619        -7.66925
   C       -5.31394        -0.37740        -2.58077
   O       -6.40723         0.07617        -2.28422
   C       -4.00180         0.09783        -2.13314
   C       -3.77521         1.22891        -1.39020
   C       -4.67897         2.15171        -0.84445
   C       -4.24199         3.30995        -0.18896
   C       -5.28710         4.09263         0.25964
   C       -6.55031         3.51968        -0.03403
   S       -6.44064         2.04498        -0.88087
   C       -7.54633         4.39732         0.44894
   C       -6.93080         5.51796         1.03676
   C       -5.48766         5.36030         0.94096
   C       -4.53489         6.22889         1.38551
   C       -3.15460         5.98125         1.22711
   N       -2.03181         5.79101         1.09648
   C       -4.86963         7.43923         2.02845
   N       -5.14536         8.42262         2.54987
   C       -7.84177         6.45228         1.51942
   C       -9.15446         6.05838         1.31225
   S       -9.25304         4.49400         0.50885
   C      -10.33431         6.77738         1.65306
   C      -11.59911         6.27394         1.44812
   C      -12.78363         6.94983         1.72619
   C      -12.75339         8.35143         2.17061
   C      -11.62488         9.03011         2.47103
   S      -10.04881         8.36950         2.34800
   C      -14.11052         8.77238         2.20372
   C      -14.93649         7.71375         1.82470
   C      -16.30257         8.07195         1.84115
   C      -16.47218         9.36548         2.22021
   S      -14.99473        10.19633         2.57684
   C      -14.12804         6.55272         1.55698
   C      -14.69953         5.29739         1.24739
   C      -14.10683         4.07478         1.32626
   C      -14.77235         2.85569         1.05490
   C      -16.06667         2.64014         0.59705
   C      -16.37103         1.28771         0.49866
   C      -15.30660         0.45016         0.87760
   S      -13.92605         1.34151         1.34845
   C      -15.73178        -0.89512         0.76406
   C      -17.06436        -0.91043         0.31012
   C      -17.50925         0.45587         0.12425
   C      -18.73383         0.88286        -0.30164
   C      -19.04542         2.25199        -0.42873
   N      -19.29709         3.36674        -0.52647
   C      -19.76451        -0.01933        -0.63727
   N      -20.60078        -0.75563        -0.90852
   C      -17.57858        -2.20276         0.18612
   C      -16.66306        -3.17193         0.53966
   S      -15.12408        -2.46325         1.03115
   C      -16.83612        -4.59935         0.55605
   C      -18.05168        -5.19002         0.17782
   C      -18.18952        -6.55431         0.21115
   C      -17.13138        -7.37673         0.60581
   C      -15.90365        -6.81683         0.99367
   C      -15.79201        -5.43850         0.95946
   C      -14.70579        -7.62945         1.43992
   O      -14.05383        -8.25872         0.37020
   N      -17.38180        -8.78523         0.60330
   O      -18.53820        -9.15308         0.57360
   O      -16.43127        -9.55004         0.62394
   H       -7.02671        -2.05961        -4.11129
   H       -2.10929        -2.96956        -4.42430
   H       -7.27515        -4.18808        -5.92075
   H       -2.74119         1.49109        -1.20094
   H       -3.19779         3.54003        -0.07066
   H       -7.57848         7.37801         1.99837
   H      -11.65424         5.29045         1.00248
   H      -11.63825        10.04986         2.82201
   H      -17.11737         7.41951         1.58524
   H      -17.39396         9.90474         2.31828
   H      -15.74847         5.33575         0.98529
   H      -13.08748         3.98341         1.67023
   H      -16.74510         3.43554         0.35164
   H      -18.57763        -2.41879        -0.14404
   H      -18.88079        -4.58038        -0.14067
   H      -19.11927        -7.02215        -0.07571
   H      -14.85268        -4.99486         1.25640
   H      -15.01610        -8.36357         2.19674
   H      -13.96973        -6.95757         1.88890
   H      -14.59943        -9.01553         0.10499
*
