# ORCA input file
# SCF done       -249.087876422335          0.000373344588
! CAM-B3LYP def2-SVP def2/J RIJCOSX Grid4 TightSCF
%maxcore 5000
%tddft
    Mode sTDDFT
    Ethresh 5.0
    maxcore 5000
end

%pal
  nprocs 6
  end
* xyz 0 1
   C        0.32695        10.67343         7.17439
   C        0.32634        10.13176         8.43429
   C        1.36218        10.31872         9.37359
   N        2.16793        10.43971        10.18218
   C       -0.67336         9.28755         8.96204
   N       -1.43095         8.57864         9.45469
   C        1.40983        11.45731         6.59389
   C        1.10926        11.70323         5.23264
   C        1.94279        12.41375         4.40364
   C        3.13273        12.90905         4.94636
   C        3.42326        12.66427         6.31022
   C        2.58016        11.94362         7.14701
   S        4.93935        13.37266         6.77718
   C        5.16037        13.97771         5.15667
   C        4.15198        13.66677         4.30778
  Br        6.69989        14.96351         4.73978
   C       -0.19344        11.09901         4.89440
   O       -0.74053        11.15222         3.81383
   C       -0.69503        10.50228         6.15607
   C       -1.95710        10.03466         6.40442
   C       -3.00339         9.74147         5.50864
   C       -3.02263         9.53214         4.13508
   C       -4.29547         9.23742         3.66802
   C       -5.27385         9.22327         4.68918
   S       -4.61187         9.53367         6.22198
   C       -6.53420         8.97213         4.09939
   C       -6.36069         8.81950         2.71207
   C       -4.94532         8.95952         2.39855
   C       -4.36183         8.83536         1.17293
   C       -2.96793         8.93804         0.97049
   N       -1.83965         8.99343         0.77800
   C       -5.12022         8.56563         0.01338
   N       -5.73907         8.34821        -0.92703
   C       -7.55838         8.59764         2.03675
   C       -8.64296         8.58567         2.89788
   S       -8.17311         8.83698         4.57057
   C      -10.00992         8.43762         2.55551
   C      -11.10215         8.46987         3.40379
   C      -12.30468         8.34810         2.70945
   C      -12.12403         8.21692         1.32154
   S      -10.47830         8.23730         0.87161
   C      -13.39888         8.14378         0.70462
   C      -14.38505         8.23247         1.70087
   C      -13.73165         8.35023         2.99489
   C      -14.32807         8.44857         4.21695
   C      -13.57819         8.56211         5.40695
   N      -12.96648         8.65641         6.37201
   C      -15.73077         8.44335         4.37243
   N      -16.86959         8.44079         4.50395
   C      -15.68134         8.21502         1.18377
   C      -15.68616         8.11070        -0.19307
   S      -14.06480         8.02350        -0.86311
   C      -16.81603         8.11815        -1.05551
   C      -16.83337         7.96512        -2.41354
   C      -18.12342         8.08391        -2.97972
   C      -18.47773         8.01360        -4.34272
   C      -17.47083         7.84499        -5.37113
   C      -16.25578         8.46012        -5.47022
   C      -15.52643         8.04301        -6.60469
   C      -16.16269         7.11214        -7.37375
   S      -17.71140         6.73956        -6.69644
   C      -15.69374         6.45433        -8.61891
  Cl      -13.96242         8.66753        -6.96910
   C      -19.83102         8.12736        -4.63778
   C      -20.82471         8.34659        -3.64799
   C      -20.46546         8.46136        -2.28600
   C      -19.11704         8.30105        -1.99090
   S      -18.41514         8.39433        -0.39833
   C      -21.45493         8.76984        -1.27729
   C      -22.52463         9.61640        -1.37454
   C      -23.27581         9.67533        -0.18195
   C      -22.80348         8.88712         0.82856
   S      -21.38241         8.04808         0.31020
   C      -23.34652         8.70095         2.19703
  Cl      -24.67496        10.66543        -0.03077
   C      -22.11595         8.43759        -4.20715
   C      -22.13265         8.36364        -5.57540
   S      -20.52526         8.08151        -6.22996
   C      -23.22009         8.45334        -6.48009
   C      -24.39051         9.12814        -6.29614
   C      -25.49320         9.14968        -7.24399
   C      -25.72921         8.22652        -8.22779
   C      -26.82976         8.27950        -9.10856
   N      -27.70109         8.27364        -9.85581
   C      -24.93741         7.08317        -8.46749
   N      -24.35449         6.12284        -8.70479
   C      -26.35339        10.27472        -6.90459
   C      -25.85294        10.88082        -5.71738
   C      -24.64967        10.16644        -5.26254
   O      -23.99081        10.43146        -4.27883
   C      -26.45820        11.96442        -5.14851
   C      -27.61333        12.50454        -5.75613
   C      -28.11613        11.90936        -6.94942
   C      -27.46888        10.78591        -7.51349
   C      -29.26524        12.46183        -7.55066
   C      -29.88951        13.54841        -7.00084
   C      -29.39428        14.13255        -5.82544
   C      -28.28085        13.62115        -5.21578
   H        1.68435        12.58001         3.36966
   H        2.84454        11.78887         8.17958
   H        4.12573        13.95904         3.27394
   H       -2.22451         9.88862         7.44475
   H       -2.14285         9.60444         3.52333
   H       -7.65730         8.45969         0.97502
   H      -11.00888         8.58674         4.46867
   H      -16.58540         8.28005         1.76202
   H      -15.94789         7.75509        -2.98557
   H      -15.90547         9.21710        -4.79316
   H      -16.36912         6.67358        -9.44520
   H      -15.66080         5.37277        -8.49245
   H      -14.69851         6.81163        -8.87110
   H      -22.75932        10.20683        -2.24116
   H      -24.18610         9.37377         2.35292
   H      -22.58059         8.90572         2.94370
   H      -23.68581         7.67494         2.33891
   H      -23.00942         8.50182        -3.61884
   H      -23.05075         7.97985        -7.44019
   H      -26.06046        12.40374        -4.24563
   H      -27.86905        10.36201        -8.42088
   H      -29.64396        12.00785        -8.45460
   H      -30.76917        13.96397        -7.46900
   H      -29.89897        14.98985        -5.40578
   H      -27.89464        14.06647        -4.31057
*
