# ORCA input file
# SCF done       -197.128447517277          0.000578147157
! CAM-B3LYP def2-SVP def2/J RIJCOSX Grid4 TightSCF
%maxcore 5000
%tddft
    Mode sTDDFT
    Ethresh 5.0
    maxcore 5000
end

%pal
  nprocs 6
  end
* xyz 0 1
   C       -3.72650         1.62765        -8.23686
   C       -2.46382         1.35729        -7.80220
   C       -2.15252         2.09234        -6.64335
   C       -3.21165         2.91401        -6.23244
   S       -4.57043         2.78156        -7.25957
   C       -2.81777         3.61183        -5.06109
   C       -1.50495         3.22701        -4.73086
   C       -1.03344         2.28322        -5.73913
   C        0.21555         1.74756        -5.84530
   C        1.27996         2.10675        -4.98883
   N        2.17447         2.41742        -4.34346
   C        0.54976         0.83397        -6.86800
   N        0.82205         0.08768        -7.69477
   C       -1.03899         3.81594        -3.56144
   C       -1.98578         4.66866        -3.00612
   S       -3.46849         4.73292        -3.95303
   C       -1.85036         5.41103        -1.81851
   C       -0.81763         5.31070        -0.87487
   C       -0.97812         6.21234         0.23448
   N       -0.04075         6.31273         1.17879
   C        0.99334         5.50650         1.08609
   C        2.08607         5.68843         2.07612
   O        2.10734         6.60978         2.86254
   C        3.16342         4.68521         1.99981
   C        3.20444         3.70709         1.08930
   C        2.16838         3.50153         0.06105
   O        2.18238         2.55910        -0.69987
   C        1.08391         4.51764         0.05647
   N        0.20283         4.45089        -0.91638
   C       -2.15285         6.97503         0.15839
   S       -3.00919         6.59729        -1.30512
   C       -2.61547         7.90498         1.10479
   C       -2.12169         8.08081         2.39403
   C       -2.82153         9.06110         3.08231
   C       -3.83375         9.66985         2.30562
   S       -3.95236         8.99096         0.74165
   C       -4.45243        10.67207         3.07461
   C       -3.85398        10.69780         4.35529
   C       -2.80834         9.68598         4.39695
   C       -1.99389         9.38176         5.44570
   C       -1.97651        10.13783         6.63941
   N       -1.90441        10.76874         7.59320
   C       -1.10365         8.28452         5.42112
   N       -0.42072         7.36462         5.44194
   C       -4.43086        11.62799         5.20790
   C       -5.44631        12.34234         4.57909
   S       -5.69420        11.83460         2.91172
   C       -6.22339        13.36441         5.14997
   C       -6.28374        13.72027         6.50542
   C       -7.15679        14.83558         6.75766
   N       -7.26609        15.35696         7.98177
   C       -6.60233        14.76332         8.94833
   C       -6.64834        15.39678        10.29193
   O       -7.15341        16.48072        10.48510
   C       -5.99711        14.62239        11.36388
   C       -5.36012        13.46448        11.16181
   C       -5.24589        12.81172         9.84506
   O       -4.73589        11.72261         9.69900
   C       -5.84273        13.57339         8.71767
   N       -5.66952        13.08913         7.50788
   C       -7.79375        15.30788         5.60090
   S       -7.27792        14.38723         4.22265
   C       -8.71436        16.36851         5.51442
   C       -9.30720        17.03884         6.57790
   C      -10.16930        18.03585         6.13690
   C      -10.21968        18.14554         4.73472
   S       -9.23442        16.99389         3.95312
   C      -11.08688        19.21686         4.39641
   C      -11.58657        19.78082         5.57875
   C      -11.05586        19.04323         6.71049
   C      -11.37018        19.21047         8.02633
   C      -12.24424        20.23091         8.45886
   N      -12.95186        21.06033         8.81397
   C      -10.90265        18.34861         9.04316
   N      -10.58103        17.63560         9.88062
   C      -12.46008        20.85601         5.33133
   C      -12.59916        21.08494         3.99548
   S      -11.68322        20.00240         3.00136
   H       -4.22922         1.21424        -9.08826
   H       -1.80086         0.66602        -8.28920
   H       -0.08217         3.65114        -3.09946
   H        3.94350         4.79759         2.74070
   H        4.01607         2.99238         1.06720
   H       -1.29272         7.50654         2.76664
   H       -4.16563        11.80466         6.23477
   H       -6.06084        15.06533        12.34866
   H       -4.89260        12.92937        11.97735
   H       -9.08605        16.79053         7.60045
   H      -12.95627        21.43307         6.08988
   H      -13.19440        21.83729         3.51784
*
