# ORCA input file
# SCF done       -211.725640171840          0.000642522575
! CAM-B3LYP def2-SVP def2/J RIJCOSX Grid4 TightSCF
%maxcore 5000
%tddft
    Mode sTDDFT
    Ethresh 5.0
    maxcore 5000
end

%pal
  nprocs 6
  end
* xyz 0 1
   C        1.61440         1.28144        -3.31675
   C        1.86213         2.32618        -4.17008
   C        2.06782         2.17456        -5.55760
   N        2.24923         2.10807        -6.68867
   C        2.04305         3.65975        -3.75816
   N        2.22363         4.75711        -3.47131
   C        1.67132        -0.12845        -3.69171
   C        1.86381        -0.90596        -2.51232
   C        1.99845        -2.26350        -2.56129
   C        1.93556        -2.91707        -3.81260
   C        1.72185        -2.14759        -4.99287
   C        1.59016        -0.74195        -4.91246
   C        1.65387        -2.81259        -6.23383
   C        1.79483        -4.17167        -6.30832
   C        2.00664        -4.92824        -5.14612
   C        2.07525        -4.31438        -3.92486
   C        1.86830        -0.01579        -1.34037
   O        2.05499        -0.30214        -0.17982
   C        1.53162         1.33829        -1.87266
   C        1.16149         2.30530        -0.98847
   C        0.46992         3.51343        -1.22354
   C       -0.32738         3.87398        -2.30103
   C       -0.85303         5.15093        -2.15911
   C       -0.45807         5.77996        -0.95963
   S        0.52978         4.78128        -0.00279
   C       -1.00408         7.08741        -0.93037
   C       -1.74346         7.28049        -2.11403
   C       -1.66916         6.07681        -2.92424
   C       -2.21730         5.87010        -4.15701
   C       -2.98373         6.86594        -4.79593
   N       -3.61028         7.68871        -5.29199
   C       -2.04370         4.65330        -4.84834
   N       -1.89865         3.65482        -5.39326
   C       -2.30675         8.54890        -2.19446
   C       -1.99962         9.32392        -1.08673
   S       -0.99416         8.46701         0.07520
   C       -2.34040        10.66768        -0.79688
   C       -3.09904        11.65033        -1.37571
   C       -2.97565        12.86399        -0.58860
   N       -2.16125        12.60663         0.48457
   C       -1.75579        11.28798         0.42269
   O       -1.04739        10.74208         1.24221
   C       -1.81335        13.45770         1.59082
   C       -3.73166        13.85204        -1.15383
   C       -4.38770        13.21744        -2.34462
   O       -5.15457        13.71365        -3.13310
   N       -3.94531        11.90173        -2.41933
   C       -4.41001        11.01294        -3.45221
   C       -3.93262        15.22675        -0.86193
   C       -4.95199        16.02531        -1.35569
   C       -4.84873        17.34252        -0.91476
   C       -3.72679        17.55842        -0.09334
   S       -2.81442        16.13739         0.14752
   C       -3.69883        18.91655         0.29680
   C       -4.81548        19.56794        -0.27098
   C       -5.56616        18.60202        -1.05897
   C       -6.69742        18.82994        -1.78286
   C       -7.28192        20.11089        -1.89999
   N       -7.76004        21.14396        -2.03171
   C       -7.37309        17.80520        -2.48200
   N       -7.94853        16.98752        -3.04206
   C       -4.90347        20.90729         0.08672
   C       -3.86206        21.29624         0.91854
   S       -2.74080        19.96528         1.23040
   C       -3.53558        22.54353         1.49206
   C       -4.34141        23.62381         1.71513
   C       -3.87988        24.90184         2.22846
   C       -2.58618        25.35582         2.23327
   C       -2.19650        26.62000         2.72294
   N       -1.81372        27.62951         3.11308
   C       -1.47656        24.65153         1.72093
   N       -0.53080        24.14709         1.30803
   C       -5.04777        25.66007         2.65651
   C       -6.21412        24.90806         2.33876
   C       -5.82864        23.63362         1.71078
   O       -6.58141        22.75797         1.34158
   C       -7.46879        25.36740         2.61815
   C       -7.61673        26.62512         3.24432
   C       -6.45428        27.38054         3.57429
   C       -5.16785        26.87906         3.26981
   C       -6.61413        28.63013         4.20691
   C       -7.86100        29.11274         4.49851
   C       -9.00463        28.36901         4.17140
   C       -8.88515        27.15190         3.55699
   H        2.15214        -2.83272        -1.65657
   H        1.41649        -0.18513        -5.81989
   H        1.49390        -2.22535        -7.12602
   H        1.74455        -4.67150        -7.26402
   H        2.11501        -5.99976        -5.22309
   H        2.23799        -4.89170        -3.02647
   H        1.38328         2.07673         0.05008
   H       -0.53798         3.21258        -3.12183
   H       -2.89915         8.90102        -3.01551
   H       -2.70842        13.87403         2.05328
   H       -1.15601        14.26819         1.27241
   H       -1.28618        12.83532         2.31407
   H       -5.15185        11.56315        -4.03135
   H       -4.87731        10.12761        -3.02026
   H       -3.59521        10.71973        -4.11580
   H       -5.71641        15.63823        -2.00455
   H       -5.67656        21.58012        -0.23307
   H       -2.50739        22.61673         1.82827
   H       -8.33691        24.77789         2.36328
   H       -4.30732        27.47118         3.53816
   H       -5.73080        29.19998         4.45531
   H       -7.97284        30.07114         4.98292
   H       -9.98063        28.76496         4.40895
   H       -9.76178        26.57436         3.30261
*
