# ORCA input file
# SCF done       -210.412200502251          0.000962965351
! CAM-B3LYP def2-SVP def2/J RIJCOSX Grid4 TightSCF
%maxcore 5000
%tddft
    Mode sTDDFT
    Ethresh 5.0
    maxcore 5000
end

%pal
  nprocs 6
  end
* xyz 0 1
   C       -2.92136        -9.64424        -2.57728
   C       -3.97036        -9.56768        -3.48125
   F       -4.57077       -10.69551        -3.87389
   C       -4.41027        -8.34450        -3.99040
   F       -5.43179        -8.31812        -4.85304
   C       -3.79928        -7.15890        -3.61371
   C       -2.74782        -7.23442        -2.72143
   C       -2.30782        -8.46242        -2.19549
   C       -1.22677        -8.20623        -1.24451
   C       -0.86330        -9.04544        -0.22417
   C       -1.34076       -10.36456        -0.08116
   N       -1.68252       -11.44918         0.07199
   C       -0.04535        -8.65414         0.85650
   N        0.58002        -8.36969         1.77618
   C       -0.85634        -6.81441        -1.38424
   C       -1.91619        -6.13576        -2.17674
   O       -2.03726        -4.94955        -2.36519
   C        0.24267        -6.11736        -0.98102
   C        1.50342        -6.61009        -0.57567
   C        2.40677        -5.95834         0.24950
   C        3.54516        -6.71856         0.48899
   C        3.54688        -7.94089        -0.21839
   S        2.13029        -8.16334        -1.13606
   C        4.72400        -8.65001         0.10790
   C        5.45044        -7.90058         1.05213
   C        4.74491        -6.65118         1.30166
   C        5.13446        -5.63865         2.12800
   C        6.32852        -5.70390         2.87681
   N        7.30123        -5.75902         3.48142
   C        4.37790        -4.45674         2.27766
   N        3.77360        -3.49034         2.39982
   C        6.59573        -8.55114         1.49764
   C        6.76943        -9.78134         0.88301
   S        5.48591       -10.13429        -0.26619
   C        7.80213       -10.72982         1.13729
   C        8.09716       -11.76827         0.28363
   C        9.06207       -12.74108         0.52689
   C        9.80085       -12.77280         1.79038
   C        9.69964       -11.83083         2.75427
   S        8.65610       -10.47665         2.65472
   C       10.61835       -13.93310         1.71907
   C       10.44316       -14.57164         0.48760
   C       11.24781       -15.73043         0.39164
   C       11.98672       -15.92770         1.51506
   S       11.74903       -14.72717         2.73530
   C        9.48779       -13.81741        -0.28843
   C        9.11020       -13.98853        -1.63443
   C        9.57972       -14.95254        -2.47754
   C        9.32624       -14.99729        -3.86441
   C        8.61035       -14.10760        -4.66223
   C        8.68534       -14.43326        -6.00823
   C        9.45364       -15.58964        -6.26048
   S       10.07367       -16.27110        -4.82035
   C        9.52212       -15.79269        -7.65318
   C        8.79561       -14.75909        -8.29307
   C        8.24595       -13.87928        -7.28195
   C        7.51622       -12.74356        -7.48467
   C        7.19959       -12.29722        -8.78475
   N        6.95176       -11.94923        -9.84890
   C        7.04522       -11.95704        -6.41413
   N        6.66211       -11.32756        -5.53500
   C        8.87128       -14.82215        -9.67556
   C        9.64412       -15.89020       -10.11577
   S       10.24814       -16.85525        -8.76523
   C        9.96114       -16.28241       -11.42791
   C        9.89992       -15.55790       -12.58578
   C        9.88361       -16.29059       -13.87877
   O       10.10173       -17.46728       -14.04878
   C        9.50012       -15.28185       -14.89144
   C        9.40571       -14.01960       -14.27976
   C        9.02356       -12.91425       -15.02200
   C        8.75334       -13.09969       -16.36999
   C        8.86619       -14.35264       -16.97417
   C        9.24072       -15.46377       -16.23554
   F        8.60566       -14.48284       -18.28020
   F        8.37397       -12.04977       -17.10537
   C        9.79180       -14.14557       -12.87218
   C       10.22509       -13.10336       -12.09360
   C       10.84767       -13.25471       -10.83955
   N       11.38575       -13.31733        -9.82699
   C       10.19897       -11.75135       -12.49752
   N       10.20604       -10.63730       -12.77128
   H       -2.61350       -10.61039        -2.21169
   H       -4.13924        -6.21379        -4.00613
   H        0.15218        -5.03613        -1.03029
   H        2.19953        -4.99793         0.68585
   H        7.28334        -8.16028         2.22584
   H        7.52545       -11.81489        -0.63417
   H       10.28418       -11.86127         3.66007
   H       11.29136       -16.40308        -0.44453
   H       12.67647       -16.72526         1.71074
   H        8.43301       -13.24641        -2.03355
   H       10.23295       -15.72101        -2.09620
   H        8.08232       -13.25884        -4.26954
   H        8.36256       -14.15485       -10.34745
   H       10.24443       -17.32214       -11.56319
   H        8.91745       -11.92901       -14.59811
   H        9.32563       -16.43313       -16.70012
*
