# ORCA input file
# SCF done       -173.305964291481          0.000653276007
! CAM-B3LYP def2-SVP def2/J RIJCOSX Grid4 TightSCF
%maxcore 5000
%tddft
    Mode sTDDFT
    Ethresh 5.0
    maxcore 5000
end

%pal
  nprocs 6
  end
* xyz 0 1
   C        0.85384        13.94396         6.12711
   S        2.56431        13.43708         6.55671
   C        2.27682        13.54395         8.35419
   C        0.76246        13.53087         8.56682
   C        0.18463        14.38017         7.42129
   C        0.38346        14.21805         9.89235
   O        1.11427        14.97742        10.48394
   N       -0.87722        13.94091        10.27822
   N        0.18599        12.19339         8.53204
   C        0.62201        11.29477         9.51912
   C        0.90693        10.01565         9.27925
   N        1.25284         9.10294        10.27465
   C        1.38871         7.74654        10.01960
   C        0.84546         6.76895        10.80160
   S        1.17512         5.18505        10.21927
   C        2.06347         5.82694         8.89805
   C        2.12696         7.19164         8.91574
   N        2.82899         7.92716         7.97621
   C        3.51059         9.08273         8.23085
   C        4.16581         9.78799         7.27945
   C        4.84193        10.99745         7.54354
   C        5.43852        11.77383         6.59151
   C        6.08358        13.02243         6.78111
   C        6.55893        13.58836         5.64166
   C        6.32905        12.81971         4.47435
   S        5.47755        11.34647         4.88314
   C        6.70130        13.11697         3.18350
   C        7.36449        14.27751         2.71752
   C        7.62440        14.28358         1.38483
   C        7.18571        13.11908         0.69202
   S        6.38312        12.03634         1.83860
   C        7.25394        12.78240        -0.62576
   C        7.96952        13.45924        -1.67306
   C        9.12390        14.22333        -1.43089
   C        9.76814        14.83856        -2.47541
   C        9.26384        14.73866        -3.78481
   C        8.14695        13.95630        -4.04519
   C        7.52518        13.31207        -2.99727
   C       10.07463        15.55900        -4.65742
   C       11.07830        16.17005        -3.88882
   C       11.01232        15.69867        -2.45104
   C       12.28884        14.86315        -2.19624
   C       12.34990        14.12550        -0.86513
   C       10.89043        16.86502        -1.46016
   C        9.70333        17.76845        -1.77494
   C       11.97327        17.03389        -4.47065
   C       11.89087        17.30731        -5.84314
   C       10.88722        16.68843        -6.59564
   C        9.98193        15.82138        -6.01682
   C       12.85487        18.22672        -6.41981
   C       13.03610        18.49547        -7.71341
   C       14.06290        19.43829        -8.21714
   S       15.40461        18.49050        -9.10021
   C       15.17021        19.39843       -10.66222
   C       14.61269        20.76310       -10.25741
   C       13.51626        20.44085        -9.23169
   C       14.01910        21.41680       -11.52102
   O       12.88080        21.22623       -11.88183
   N       14.91035        22.15185       -12.21092
   N       15.68966        21.57195        -9.72134
   C       15.40370        22.81490        -9.17984
   C       16.12357        23.41011        -8.23852
   H        0.35443        13.08777         5.67248
   H        0.90733        14.74776         5.39607
   H        2.70825        14.46958         8.73643
   H        2.75838        12.69033         8.82841
   H        0.41648        15.42720         7.62472
   H       -0.89817        14.26568         7.36096
   H       -1.40465        13.23327         9.79603
   H       -1.22845        14.33238        11.13613
   H        0.28791        11.78123         7.61032
   H        0.66195        11.70514        10.51806
   H        0.87910         9.61822         8.27607
   H        0.92945         9.33290        11.20353
   H        0.26335         6.89519        11.69239
   H        2.51208         5.16401         8.18602
   H        3.01599         7.47260         7.09316
   H        3.48426         9.42295         9.25449
   H        4.16776         9.43537         6.25622
   H        4.87653        11.34741         8.56721
   H        6.16281        13.46289         7.75969
   H        7.06893        14.53434         5.60252
   H        7.62043        15.08328         3.38305
   H        8.06864        15.11513         0.86897
   H        6.69544        11.90675        -0.93154
   H        9.51153        14.29060        -0.42778
   H        7.76816        13.85636        -5.05181
   H        6.65278        12.70232        -3.18526
   H       13.14570        15.53719        -2.27059
   H       12.37524        14.13213        -3.00462
   H       12.24967        14.80914        -0.02603
   H       13.31122        13.62331        -0.77633
   H       11.56968        13.37206        -0.80301
   H       11.81158        17.45143        -1.48840
   H       10.77746        16.46750        -0.45034
   H        9.80216        18.19958        -2.76876
   H        9.64325        18.57880        -1.05144
   H        8.77378        17.20415        -1.73995
   H       12.74609        17.50878        -3.88209
   H       10.80879        16.89951        -7.65083
   H        9.21128        15.35784        -6.61500
   H       13.48880        18.73068        -5.69880
   H       12.45674        18.00080        -8.47935
   H       14.56405        19.94400        -7.38801
   H       14.46083        18.85867       -11.28981
   H       16.13064        19.47089       -11.16890
   H       12.66516        20.01788        -9.76865
   H       13.18325        21.34586        -8.72187
   H       15.82346        22.32830       -11.82716
   H       14.61637        22.62452       -13.04904
   H       16.34439        21.03321        -9.16505
   H       14.55861        23.31079        -9.64020
   H       16.96503        22.92246        -7.77623
   H       15.90100        24.40907        -7.91549
*
