# ORCA input file
# SCF done       -220.685969246249          0.000464112845
! CAM-B3LYP def2-SVP def2/J RIJCOSX Grid4 TightSCF
%maxcore 5000
%tddft
    Mode sTDDFT
    Ethresh 5.0
    maxcore 5000
end

%pal
  nprocs 6
  end
* xyz 0 1
   C       -4.13772        -2.15683        -0.93788
   C       -2.77661        -2.25406        -0.81132
   C       -2.05457        -3.45784        -0.94407
   N       -1.41601        -4.40645        -1.04662
   C       -1.92212        -1.17879        -0.48738
   N       -1.16613        -0.36620        -0.19340
   C       -5.06115        -3.26337        -1.14641
   C       -6.38743        -2.76926        -1.06658
   C       -7.48709        -3.57943        -1.21607
   C       -7.27005        -4.94060        -1.45021
   C       -5.94214        -5.42344        -1.53339
   C       -4.82888        -4.60465        -1.38570
   S       -5.91289        -7.13153        -1.84032
   C       -7.64188        -7.18407        -1.85075
   C       -8.22155        -5.98295        -1.63639
   C       -6.36212        -1.31236        -0.84247
   O       -7.32255        -0.57150        -0.83619
   C       -4.92161        -0.94675        -0.77907
   C       -4.44860         0.32885        -0.78688
   C       -5.21682         1.48390        -0.45104
   C       -5.01323         2.70539        -1.12445
   C       -5.84183         3.85744        -0.86874
   N       -5.58754         5.00700        -1.51406
   C       -4.63780         5.04610        -2.41633
   C       -3.86739         3.87697        -2.72323
   N       -4.05922         2.75748        -2.07147
   C       -2.87769         3.93622        -3.73604
   N       -2.10074         4.03024        -4.57266
   C       -4.39365         6.27059        -3.08530
   N       -4.20580         7.24842        -3.65229
   C       -6.89820         3.83162         0.07367
   C       -7.00317         2.65584         0.84022
   C       -6.17607         1.49736         0.57963
   N       -6.42117         0.50818         1.43739
   S       -7.60219         0.95502         2.42250
   N       -7.84973         2.43117         1.85073
   C       -7.79080         4.96138         0.22643
   C       -8.12870         5.74735        -0.88744
   C       -8.89666         6.86846        -0.71468
   C       -9.36932         7.22746         0.56036
   C       -9.08279         6.42681         1.66128
   C       -8.30482         5.30313         1.48700
   C      -10.09207         8.46874         0.44440
   C      -10.06349         8.88556        -0.90271
   C       -9.36933         7.85319        -1.76105
   C       -8.20021         8.43967        -2.56691
   C       -7.10591         9.01538        -1.67589
   C      -10.37151         7.10277        -2.67060
   C      -11.09268         7.95550        -3.70580
   C      -10.60406        10.09374        -1.25967
   C      -11.23263        10.90316        -0.29235
   C      -11.28107        10.45041         1.03880
   C      -10.71142         9.25428         1.41082
   C      -11.79333        12.15211        -0.71085
   C      -12.43214        13.06233         0.07430
   C      -12.95672        14.27337        -0.40518
   C      -13.58490        15.20049         0.38949
   C      -14.12963        16.44608        -0.00674
   C      -14.67826        17.16624         1.01113
   C      -14.60047        16.53030         2.27045
   S      -13.81079        14.97991         2.11893
   C      -15.03855        16.98755         3.49839
   C      -15.65841        18.22158         3.79719
   C      -15.93966        18.37932         5.12037
   C      -15.55805        17.27683         5.92489
   S      -14.83870        16.02155         4.95119
   C      -15.68675        17.13051         7.28349
   C      -15.24591        15.94797         7.89839
   N      -14.72646        14.96397         7.22983
   C      -14.37233        13.91888         8.00404
   C      -14.63936        14.11507         9.38308
   S      -15.35835        15.67109         9.65220
   C      -14.32790        13.11638        10.27253
   C      -13.73774        11.93316         9.81112
   C      -13.53554        11.69757         8.43764
   C      -13.84529        12.70685         7.52904
   C      -13.66843        12.60296         6.04117
   C      -12.43705        13.38587         5.57987
   C      -13.10413        10.32878         7.96983
   C      -11.66931        10.25835         7.44137
   N      -13.45233        11.04000        10.84558
   C      -14.20735        11.31605        12.02952
   S      -14.61264        13.11484        12.00694
   C      -12.26346        10.33838        10.92953
   C      -11.97447         9.42626        11.85146
   H       -8.48509        -3.17398        -1.15243
   H       -3.83684        -5.01704        -1.46573
   H       -8.12452        -8.12685        -2.02083
   H       -9.28435        -5.82342        -1.60967
   H       -3.43563         0.52682        -1.11418
   H       -7.79164         5.46064        -1.87014
   H       -9.44943         6.68890         2.64244
   H       -8.05348         4.68470         2.33349
   H       -8.57619         9.22599        -3.22261
   H       -7.77327         7.65466        -3.19379
   H       -7.50130         9.80653        -1.04162
   H       -6.30722         9.42560        -2.28866
   H       -6.68165         8.24161        -1.04048
   H      -11.11657         6.62532        -2.02816
   H       -9.82175         6.31017        -3.18269
   H      -11.72624         8.69629        -3.22570
   H      -11.72581         7.31726        -4.31858
   H      -10.38899         8.46018        -4.36211
   H      -10.54579        10.45034        -2.27738
   H      -11.76307        11.05777         1.78872
   H      -10.73838         8.93252         2.44132
   H      -11.68929        12.38310        -1.76460
   H      -12.55782        12.87724         1.13239
   H      -12.85970        14.49997        -1.45893
   H      -14.09514        16.77013        -1.03210
   H      -15.13396        18.13287         0.89219
   H      -15.87445        18.95644         3.04192
   H      -16.40516        19.24960         5.54851
   H      -16.12275        17.91247         7.88376
   H      -14.54365        13.04662         5.56288
   H      -13.59001        11.56433         5.72476
   H      -12.55307        14.43382         5.83866
   H      -12.32957        13.31004         4.50067
   H      -11.53213        13.01070         6.05237
   H      -13.78357        10.00583         7.17684
   H      -13.21557         9.62250         8.79374
   H      -11.57197        10.78633         6.49833
   H      -11.38780         9.21951         7.28298
   H      -10.96547        10.69906         8.14366
   H      -13.63698        11.09505        12.93151
   H      -15.15920        10.77236        12.04372
   H      -11.54799        10.59062        10.16258
   H      -12.66181         9.12849        12.62298
   H      -11.01483         8.94496        11.85019
*
