# ORCA input file
# SCF done       -199.132726432427          0.000427480557
! CAM-B3LYP def2-SVP def2/J RIJCOSX Grid4 TightSCF
%maxcore 5000
%tddft
    Mode sTDDFT
    Ethresh 5.0
    maxcore 5000
end

%pal
  nprocs 6
  end
* xyz 0 1
   C       -5.44297        -2.04537        -0.48576
   C       -5.44966        -3.04722         0.45070
   C       -5.21498        -4.40657         0.15629
   N       -5.02125        -5.52509        -0.01602
   C       -5.68867        -2.87798         1.83071
   N       -5.88794        -2.83602         2.96096
   C       -5.26628        -2.22937        -1.92155
   C       -5.34183        -0.96597        -2.55719
   C       -5.22941        -0.81129        -3.91730
   C       -5.03970        -1.96081        -4.69083
   C       -4.96035        -3.21893        -4.04741
   C       -5.06970        -3.37445        -2.67135
   S       -4.71360        -4.50542        -5.18860
   C       -4.72229        -3.35210        -6.49610
   C       -4.90074        -2.06919        -6.10154
  Br       -4.48979        -3.95052        -8.25720
   C       -5.53040         0.08390        -1.53981
   O       -5.44726         1.28114        -1.72650
   C       -5.67715        -0.63448        -0.24642
   C       -5.87384        -0.03609         0.96419
   C       -6.37291         1.28055         1.15088
   C       -7.27844         1.89213         0.25553
   C       -7.66012         3.27616         0.39427
   N       -8.45630         3.82592        -0.53500
   C       -8.86079         3.11274        -1.55563
   C       -8.58261         1.70914        -1.61639
   N       -7.83260         1.14316        -0.70610
   C       -9.13064         0.90629        -2.64594
   N       -9.54806         0.28472        -3.51333
   C       -9.62787         3.74720        -2.56282
   N      -10.23005         4.25377        -3.39576
   C       -7.23268         4.07308         1.48346
   C       -6.47668         3.40314         2.46726
   C       -6.04258         2.03419         2.29468
   N       -5.27046         1.62380         3.29939
   S       -5.11724         2.81751         4.36099
   N       -5.99548         3.92199         3.60206
   C       -7.51906         5.49132         1.55315
   C       -7.60817         6.25938         0.37987
   C       -7.91986         7.59233         0.46208
   C       -8.17623         8.18835         1.71152
   C       -8.06380         7.44403         2.87986
   C       -7.72367         6.11139         2.79561
   C       -8.56635         9.56144         1.49576
   C       -8.56837         9.81262         0.11217
   C       -8.08544         8.59872        -0.65281
   C       -6.73130         8.98254        -1.29593
   C       -5.95945         7.84458        -1.95042
   C       -9.09884         8.12560        -1.70600
   C      -10.47059         7.83769        -1.10752
   C       -8.93567        11.04472        -0.36937
   C       -9.29818        12.06528         0.52310
   C       -9.28835        11.79794         1.89920
   C       -8.92995        10.56027         2.39008
   C       -9.67550        13.35086        -0.02123
   C       -9.84694        14.48702         0.67004
   C      -10.16781        15.77141         0.06586
   C       -9.49050        16.89929         0.53535
   F       -8.65933        16.75638         1.59328
   C       -9.59272        18.14689        -0.04314
   C      -10.40674        18.29312        -1.15601
   C      -11.12098        17.21355        -1.63072
   C      -11.05536        15.95644        -1.01693
   C      -11.97057        14.94415        -1.49619
   C      -12.57669        14.00560        -0.72977
   C      -13.52240        13.04111        -1.15164
   C      -14.01653        12.78001        -2.40217
   C      -14.97610        11.76793        -2.68943
   C      -15.34880        11.68682        -3.99142
   C      -14.70771        12.63103        -4.83218
   S      -13.60201        13.61467        -3.89129
   C      -14.88099        12.81839        -6.18193
   C      -15.75020        12.09631        -7.04889
   C      -15.71926        12.50601        -8.33535
   C      -14.81613        13.59213        -8.59100
   S      -14.01455        14.04823        -7.07910
   C      -14.57635        14.20218        -9.75930
   H       -5.29229         0.16482        -4.37210
   H       -5.00051        -4.35460        -2.23011
   H       -4.93379        -1.23261        -6.77532
   H       -5.64095        -0.56941         1.87657
   H       -7.42301         5.79478        -0.57350
   H       -8.25578         7.89711         3.84081
   H       -7.65032         5.51767         3.69218
   H       -6.10473         9.42920        -0.51898
   H       -6.92915         9.75483        -2.04270
   H       -5.64330         7.11284        -1.21210
   H       -6.55424         7.34642        -2.71130
   H       -5.06828         8.24521        -2.42929
   H       -8.72814         7.21654        -2.18013
   H       -9.19116         8.89408        -2.47629
   H      -10.40065         7.05891        -0.35142
   H      -11.15008         7.49753        -1.88516
   H      -10.88775         8.73092        -0.64643
   H       -8.94621        11.24452        -1.43142
   H       -9.57747        12.57249         2.59242
   H       -8.93312        10.37156         3.45325
   H       -9.81388        13.37431        -1.09524
   H       -9.62730        14.52149         1.72871
   H       -9.03040        18.97166         0.36417
   H      -10.48586        19.25350        -1.64123
   H      -11.77773        17.33851        -2.47887
   H      -12.25928        15.04990        -2.53253
   H      -12.33749        13.97624         0.32501
   H      -13.91717        12.40415        -0.36940
   H      -15.35863        11.13347        -1.90923
   H      -16.06348        10.98031        -4.37311
   H      -16.36836        11.29666        -6.68134
   H      -16.30532        12.08235        -9.13135
   H      -15.08595        13.89272       -10.65464
   H      -13.87444        15.01162        -9.84167
*
