# ORCA input file
# SCF done       -191.766841404797          0.000756133071
! CAM-B3LYP def2-SVP def2/J RIJCOSX Grid4 TightSCF
%maxcore 5000
%tddft
    Mode sTDDFT
    Ethresh 5.0
    maxcore 5000
end

%pal
  nprocs 6
  end
* xyz 0 1
   C       -5.66857         6.15146         5.49338
   C       -6.61037         5.27696         5.97859
   C       -7.09304         5.28512         7.30267
   N       -7.52025         5.23010         8.36711
   C       -7.23809         4.26443         5.22766
   N       -7.79410         3.43031         4.66529
   C       -5.07509         7.25087         6.24878
   C       -4.19662         7.96386         5.39829
   C       -3.48778         9.06251         5.81582
   C       -3.66093         9.48623         7.13811
   C       -4.54040         8.76832         7.98151
   C       -5.25248         7.65208         7.55964
   S       -4.60441         9.46001         9.57517
   C       -3.46527        10.68791         9.09120
   C       -3.05645        10.58732         7.80429
  Br       -2.92256        11.98707        10.33082
   C       -4.17737         7.32273         4.06762
   O       -3.43961         7.60669         3.14382
   C       -5.13784         6.20965         4.14964
   C       -5.38695         5.29648         3.15484
   N       -5.08374         5.41434         1.85558
   C       -4.87541         6.60501         1.14784
   C       -5.62497         7.73290         1.31138
   S       -5.14206         8.98200         0.25437
   C       -3.93108         7.98479        -0.44736
   C       -3.87948         6.74523         0.12407
   N       -3.04183         5.71148        -0.23810
   C       -1.76941         5.83163        -0.76999
   C       -1.01196         6.93493        -0.76075
   C        0.30414         7.05210        -1.35314
   C        0.74460         6.19245        -2.36954
   C        2.00410         6.34232        -2.90354
   C        2.84980         7.35876        -2.41758
   C        2.42182         8.22375        -1.42074
   C        1.15277         8.07008        -0.90411
   C        4.10522         7.30440        -3.12799
   C        4.04259         6.25705        -4.06076
   C        2.69612         5.55675        -3.99843
   C        2.98188         4.08967        -3.60839
   C        1.78651         3.20356        -3.28516
   C        2.03981         5.70508        -5.39184
   C        0.51826         5.65461        -5.46385
   C        5.10675         5.98823        -4.88308
   C        6.27904         6.76348        -4.78568
   C        6.32415         7.80505        -3.84285
   C        5.25342         8.08008        -3.02111
   C        7.36761         6.45085        -5.66578
   C        8.59977         7.02851        -5.67956
   C        9.66612         6.72554        -6.55219
   C        9.71600         5.86256        -7.62059
   C       10.86476         5.63469        -8.42143
   C       10.68806         4.74276        -9.43595
   C        9.38332         4.21115        -9.50154
   S        8.39079         4.88457        -8.22902
   C        8.86802         3.28388       -10.38757
   C        9.50465         2.60024       -11.44044
   C        8.69034         1.72648       -12.09847
   C        7.35974         1.66132       -11.61062
   S        7.19417         2.78196       -10.27496
   C        6.39770         0.85464       -12.17940
   C        5.04171         0.60097       -11.93377
   S        4.25712        -0.35308       -13.17490
   C        2.73333        -0.28988       -12.41167
   C        2.78180         0.41632       -11.22967
   C        4.09609         0.92260       -10.93098
   C        4.26610         1.59980        -9.72680
   C        3.20404         1.82841        -8.86194
   C        3.54522         2.55752        -7.70791
   N        3.92192         3.16522        -6.80685
   C        1.89555         1.34750        -9.17519
   O        0.78205         1.50146        -8.41258
   C        0.83199         2.21268        -7.20033
   C        1.71281         0.64808       -10.34250
   H       -2.82404         9.58226         5.14286
   H       -5.90719         7.13766         8.24281
   H       -2.35730        11.26011         7.34217
   H       -5.85559         4.35621         3.41756
   H       -5.17990         4.58026         1.29053
   H       -6.42330         7.89026         2.00849
   H       -3.33286         8.36833        -1.24676
   H       -3.26475         4.80700         0.14882
   H       -1.41003         4.90457        -1.19705
   H       -1.36688         7.80419        -0.22601
   H        0.07135         5.43696        -2.73861
   H        3.07049         9.00800        -1.05922
   H        0.80359         8.73626        -0.12804
   H        3.63956         4.10735        -2.73433
   H        3.53748         3.64029        -4.43262
   H        1.24500         3.57516        -2.41944
   H        2.14207         2.20104        -3.05284
   H        1.10763         3.12881        -4.12984
   H        2.46549         4.93071        -6.03248
   H        2.35201         6.67139        -5.79832
   H        0.12084         4.71704        -5.08712
   H        0.20793         5.75793        -6.50264
   H        0.07785         6.47309        -4.89993
   H        5.05864         5.18773        -5.60610
   H        7.21336         8.41112        -3.76140
   H        5.30621         8.88746        -2.30546
   H        7.15611         5.65846        -6.36948
   H        8.82272         7.79594        -4.95032
   H       10.59264         7.25546        -6.36328
   H       11.79250         6.14058        -8.21726
   H       11.45454         4.45718       -10.13410
   H       10.53942         2.76384       -11.68305
   H        9.00689         1.11676       -12.92668
   H        6.76866         0.31767       -13.04746
   H        1.88650        -0.77007       -12.85816
   H        5.23543         1.95603        -9.42818
   H       -0.18545         2.18568        -6.81071
   H        1.13048         3.25337        -7.35334
   H        1.50724         1.74187        -6.47987
   H        0.73018         0.26995       -10.57420
*
