# ORCA input file
# SCF done       -193.344571169688          0.000862633349
! CAM-B3LYP def2-SVP def2/J RIJCOSX Grid4 TightSCF
%maxcore 5000
%tddft
    Mode sTDDFT
    Ethresh 5.0
    maxcore 5000
end

%pal
  nprocs 6
  end
* xyz 0 1
   C       12.21335        -5.57640        10.74116
   C       12.39545        -6.40805         9.70756
   C       13.63470        -6.94508         9.21939
   C       13.50801        -7.76762         8.15637
   C       12.16682        -7.95213         7.71147
   S       11.06531        -7.02370         8.71380
   C       11.73447        -8.72732         6.66737
   C       12.51260        -9.52691         5.78910
   C       11.78657       -10.18498         4.85530
   C       10.37643        -9.96246         4.91803
   S       10.03674        -8.84892         6.23940
   C        9.47763       -10.56053         4.08779
   C        8.04989       -10.46665         4.02889
   C        7.37300       -11.34005         3.15348
   C        6.00564       -11.31098         3.07733
   C        5.26441       -10.40146         3.85391
   C        5.91689        -9.52120         4.70612
   C        7.29257        -9.56153         4.78952
   C        3.85925       -10.60452         3.58447
   C        3.72826       -11.64797         2.65010
   C        5.08617       -12.16307         2.23354
   C        5.24593       -13.65931         2.55791
   C        5.00447       -13.97249         4.02969
   C        5.33314       -11.93015         0.73091
   C        5.19541       -10.46659         0.32898
   C        2.49007       -12.07578         2.24266
   C        1.34027       -11.46103         2.76172
   C        1.48804       -10.39551         3.66027
   C        2.73052        -9.96815         4.08179
   C        0.00662       -11.89801         2.41774
   C       -0.30514       -13.08843         1.87128
   C       -1.62753       -13.55279         1.57878
   S       -1.93937       -15.25853         1.72921
   C       -3.63399       -15.05427         1.36994
   C       -3.90593       -13.72251         1.08933
   C       -2.77679       -12.88287         1.20814
   C       -2.85698       -11.44907         0.78130
   C       -3.28740       -11.39995        -0.67461
   S       -4.97933       -12.06845        -0.80813
   O       -5.06587       -12.87131        -1.99658
   O       -5.91412       -10.98420        -0.66644
   C       -5.20425       -13.16624         0.65170
   C       -4.45288       -16.21004         1.45227
   C       -5.80134       -16.25675         1.61007
   C       -6.54179       -17.45385         1.70264
   S       -5.79975       -19.01570         1.65138
   C       -7.30672       -19.85408         1.87024
   C       -8.37191       -18.94639         1.91874
   C       -7.93657       -17.58320         1.84920
   C       -8.88560       -16.55850         1.89764
   C      -10.23063       -16.85249         1.99121
   C      -11.22420       -15.77679         2.03432
   O      -12.42898       -15.95531         2.08549
   O      -10.70792       -14.54485         2.01457
   C      -10.67282       -18.21620         2.00044
   O      -11.97189       -18.54239         2.06377
   C       -9.74729       -19.23240         1.94644
   C       -7.32086       -21.26973         1.96777
   S       -6.20106       -22.22278         1.05158
   C       -6.83331       -23.69374         1.64221
   C       -7.86337       -23.49664         2.53627
   C       -8.14178       -22.10168         2.74337
   C       -9.09494       -21.73660         3.70443
   C       -9.81151       -22.69657         4.38549
   C      -10.85922       -22.32457         5.36025
   O      -11.27571       -23.09236         6.20307
   O      -11.38164       -21.09605         5.27787
   C       -9.53852       -24.09397         4.16877
   O      -10.18765       -25.04931         4.84720
   C       -8.58494       -24.46927         3.25567
   H       13.05072        -5.22685        11.31877
   H       11.23560        -5.23271        11.02500
   H       14.56614        -6.68752         9.69185
   H       14.33104        -8.25668         7.66557
   H       13.58215        -9.59055         5.88083
   H       12.20669       -10.83728         4.10952
   H        9.91604       -11.23998         3.36497
   H        7.94474       -12.03736         2.55705
   H        5.35771        -8.81453         5.30078
   H        7.79419        -8.87270         5.44910
   H        6.25537       -13.97136         2.28186
   H        4.54279       -14.22824         1.94563
   H        5.71184       -13.43473         4.65714
   H        5.12378       -15.03842         4.21057
   H        3.99764       -13.68366         4.32371
   H        4.62083       -12.53118         0.16135
   H        6.33787       -12.28008         0.48441
   H        4.19512       -10.10018         0.54930
   H        5.37711       -10.35232        -0.73724
   H        5.91189        -9.85129         0.86866
   H        2.39732       -12.87206         1.51990
   H        0.60013        -9.91410         4.04562
   H        2.82097        -9.15593         4.78733
   H       -0.78909       -11.22286         2.70364
   H        0.47372       -13.82076         1.70717
   H       -1.88852       -10.96131         0.89166
   H       -3.59125       -10.90860         1.38526
   H       -2.65721       -12.01509        -1.31038
   H       -3.34112       -10.38479        -1.05710
   H       -5.89492       -13.92779         0.30480
   H       -5.67347       -12.53583         1.40511
   H       -3.91488       -17.15085         1.43985
   H       -6.37175       -15.34652         1.70965
   H       -8.58034       -15.52560         1.85430
   H      -11.42353       -13.89002         2.03348
   H      -12.50735       -17.71845         2.07496
   H      -10.09932       -20.24952         1.89005
   H       -6.41863       -24.62386         1.31042
   H       -9.21289       -20.68745         3.93674
   H      -11.07519       -20.59676         4.50854
   H      -10.74828       -24.62860         5.53554
   H       -8.37441       -25.51675         3.11613
*
