# ORCA input file
# SCF done       -161.236758619626          0.000490048289
! CAM-B3LYP def2-SVP def2/J RIJCOSX Grid4 TightSCF
%maxcore 5000
%tddft
    Mode sTDDFT
    Ethresh 5.0
    maxcore 5000
end

%pal
  nprocs 6
  end
* xyz 0 1
   C      -12.51736        -7.76940         3.01506
   S      -10.92420        -8.29360         2.75432
   C      -10.74667        -8.84934         4.39666
   C      -11.92493        -8.60863         5.12336
   C      -12.93790        -7.99135         4.30798
   C      -14.22257        -7.67403         4.82742
   C      -15.23984        -7.02527         3.94449
   C      -14.46904        -7.98292         6.13151
   C      -13.48751        -8.59218         6.93539
   C      -12.23572        -8.91074         6.47777
   C      -11.26530        -9.56290         7.41482
   C       -9.52635        -9.45730         4.77966
   C       -8.55021        -9.79564         3.89848
   C       -7.32514       -10.45466         4.17280
   S       -6.58952       -11.24922         2.80119
   C       -5.32952       -11.94831         3.77771
   C       -5.49318       -11.55289         5.10163
   C       -6.59966       -10.70412         5.33550
   C       -6.83128       -10.16735         6.67045
   C       -7.21373        -8.92899         6.95222
   O       -4.63492       -11.97483         6.09021
   C       -3.65895       -11.02007         6.45764
   C       -4.35325       -12.80786         3.22836
   C       -4.38786       -13.16175         1.91013
   C       -3.54840       -14.03225         1.20712
   C       -3.81660       -14.34756        -0.10921
   C       -3.14091       -15.21298        -0.99818
   C       -3.72621       -15.33115        -2.23001
   C       -4.89644       -14.56305        -2.37962
   S       -5.22362       -13.67006        -0.91305
   C       -5.79660       -14.42444        -3.42288
   C       -5.86396       -15.00774        -4.70384
   C       -6.95739       -14.62363        -5.42743
   C       -7.81607       -13.71468        -4.75795
   S       -7.15649       -13.35349        -3.17218
   C       -9.05559       -13.26225        -5.14120
   C       -9.82683       -12.37916        -4.34955
   S      -11.54138       -12.65882        -4.13922
   C      -11.62593       -11.50947        -2.83308
   C      -10.40456       -10.86734        -2.67029
   C       -9.38846       -11.33409        -3.53580
   C       -8.09155       -10.70296        -3.70290
   C       -7.46594        -9.97000        -2.78876
   O      -10.19058        -9.85823        -1.76569
   C      -10.89816        -8.65931        -2.01341
   C      -12.79558       -11.41010        -2.02783
   C      -12.73709       -11.03065        -0.72614
   C      -13.84742       -10.90479         0.14522
   S      -15.42145       -10.64168        -0.52734
   C      -16.14655       -10.39796         1.02369
   C      -15.22562       -10.61707         2.04870
   C      -13.90175       -10.90291         1.54699
   C      -12.85269       -11.23486         2.44764
   C      -11.48676       -11.65429         1.99902
   C      -13.14270       -11.23487         3.78552
   C      -14.43006       -10.97068         4.27437
   C      -15.48338       -10.69329         3.44809
   C      -16.85654       -10.56953         4.03081
   C      -17.52837        -9.96963         0.98666
   C      -18.05215        -8.93902         1.64219
   H      -13.06519        -7.32921         2.20674
   H      -14.89492        -6.04236         3.62291
   H      -16.18321        -6.90408         4.47200
   H      -15.40154        -7.63032         3.05280
   H      -15.43318        -7.76403         6.56775
   H      -13.74261        -8.81760         7.96144
   H      -11.73229        -9.71430         8.38576
   H      -10.38224        -8.94077         7.55783
   H      -10.94914       -10.53390         7.03523
   H       -9.38043        -9.68494         5.82005
   H       -8.73266        -9.62830         2.84293
   H       -6.58011       -10.85519         7.46984
   H       -7.42517        -8.20850         6.17982
   H       -7.31841        -8.59156         7.96961
   H       -3.08233       -11.47121         7.26309
   H       -4.12038       -10.09135         6.80997
   H       -2.99638       -10.79130         5.61523
   H       -3.60419       -13.19740         3.90352
   H       -5.19552       -12.73104         1.32679
   H       -2.69816       -14.48780         1.69499
   H       -2.24346       -15.72999        -0.70504
   H       -3.34790       -15.95185        -3.02346
   H       -5.11854       -15.70033        -5.05394
   H       -7.17953       -14.97292        -6.42086
   H       -9.51818       -13.70717        -6.01187
   H       -7.64199       -10.85731        -4.67721
   H       -7.86780        -9.82930        -1.80200
   H       -6.52114        -9.50105        -3.00516
   H      -10.64830        -7.99018        -1.19176
   H      -11.97983        -8.82189        -2.03691
   H      -10.58028        -8.21071        -2.96041
   H      -13.73026       -11.73972        -2.46299
   H      -11.76866       -10.80160        -0.31439
   H      -10.92883       -10.82034         1.57590
   H      -11.55103       -12.44034         1.24834
   H      -10.92046       -12.03044         2.84857
   H      -12.36874       -11.49242         4.49392
   H      -14.59588       -11.03402         5.33990
   H      -16.87909       -11.03770         5.01249
   H      -17.59565       -11.04892         3.39368
   H      -17.14242        -9.52673         4.15340
   H      -18.13932       -10.49765         0.26258
   H      -17.47306        -8.33200         2.31492
   H      -19.08571        -8.66718         1.51753
*
