# ORCA input file
# SCF done       -197.300998276573          0.000872301658
! CAM-B3LYP def2-SVP def2/J RIJCOSX Grid4 TightSCF
%maxcore 5000
%tddft
    Mode sTDDFT
    Ethresh 5.0
    maxcore 5000
end

%pal
  nprocs 6
  end
* xyz 0 1
   C       -9.55514         1.16523         1.08323
   C       -9.53756        -0.03729         1.73589
   C      -10.31247        -0.31888         2.88159
   N      -10.92349        -0.59978         3.81146
   C       -8.69300        -1.12256         1.41153
   N       -8.01223        -2.03026         1.24092
   C      -10.28343         2.35338         1.50479
   C       -9.84088         3.45265         0.72937
   C      -10.32765         4.72574         0.90452
   C      -11.30680         4.92062         1.88360
   C      -11.75149         3.81309         2.64655
   C      -11.25283         2.52798         2.47558
   S      -12.97218         4.27545         3.79231
   C      -12.86897         5.92707         3.24215
   C      -11.96778         6.12437         2.25034
  Br      -13.96118         7.23342         4.02658
   C       -8.82652         3.00307        -0.24578
   O       -8.20189         3.71457        -0.99787
   C       -8.77035         1.51976        -0.09168
   C       -8.24868         0.61231        -0.96365
   C       -7.51084         0.84787        -2.14697
   O       -7.03004         2.06395        -2.50401
   C       -7.15012        -0.05964        -3.13284
   C       -7.26221        -1.46409        -3.56191
   O       -7.81170        -2.40237        -3.05326
   N       -6.57281        -1.48711        -4.77134
   C       -6.04632        -0.26299        -5.18631
   O       -5.43088        -0.08103        -6.20286
   C       -6.43473         0.65736        -4.11278
   C       -6.38401         1.97816        -3.68544
   C       -5.82373         3.13171        -4.28923
   C       -5.91264         4.35675        -3.71430
   C       -5.42399         5.55957        -4.28799
   S       -5.53680         7.04876        -3.37039
   C       -4.84598         7.95223        -4.68126
   C       -4.54681         7.11347        -5.77769
   C       -4.87116         5.76903        -5.53073
   C       -3.97853         7.70852        -6.92540
   C       -3.80572         9.10036        -6.95076
   S       -3.01608         9.59460        -8.41831
   C       -2.96322         7.96492        -8.97828
   C       -3.50251         7.08245        -8.10834
   C       -4.14057         9.93114        -5.85889
   C       -4.61837         9.31969        -4.70255
   C       -4.00365        11.36834        -5.88768
   C       -4.40792        12.19682        -6.88518
   C       -4.25411        13.61582        -6.91476
   C       -4.84057        14.22066        -7.97654
   C       -5.51730        13.32576        -8.84611
   S       -5.34916        11.68305        -8.28452
   C       -6.24945        13.63199        -9.97498
   C       -6.46141        14.89884       -10.56516
   C       -7.26464        14.86334       -11.66463
   C       -7.73597        13.57029       -11.99610
   S       -7.10735        12.39383       -10.86880
   C       -8.60744        13.25042       -13.01741
   C       -9.05151        11.95355       -13.25860
   C       -9.99531        11.51415       -14.15949
   C      -10.97801        12.19950       -14.95416
   C      -11.55071        13.42537       -14.70224
   C      -12.53401        14.01703       -15.51892
   N      -13.31740        14.56122       -16.15899
   C      -11.32425        14.19775       -13.54669
   N      -11.22897        14.85085       -12.60622
   C      -11.44621        11.26031       -15.97515
   C      -10.91397         9.97831       -15.69000
   C      -10.02595        10.07698       -14.51315
   O       -9.41925         9.17972       -13.96795
   C      -11.21551         8.86859       -16.43961
   C      -12.07656         9.03197       -17.53062
   C      -12.58822        10.31845       -17.81809
   C      -12.28796        11.44127       -17.05478
   S      -13.62509        10.29663       -19.21270
   C      -13.36505         8.58092       -19.38349
   C      -12.54241         8.05048       -18.44838
  Br      -14.20529         7.65186       -20.78009
   H       -9.96621         5.54490         0.30283
   H      -11.62514         1.71574         3.07716
   H      -11.77677         7.07862         1.79447
   H       -8.43616        -0.44099        -0.79496
   H       -6.47152        -2.33110        -5.31735
   H       -5.33725         2.96879        -5.23830
   H       -6.40638         4.43742        -2.75419
   H       -4.72378         4.98204        -6.24693
   H       -2.52761         7.76588        -9.93762
   H       -3.55522         6.02400        -8.28520
   H       -4.86490         9.92158        -3.84183
   H       -3.60919        11.83022        -4.99130
   H       -3.70549        14.12869        -6.14471
   H       -4.82279        15.28009        -8.15807
   H       -6.01766        15.79405       -10.16827
   H       -7.54973        15.72483       -12.24147
   H       -8.93913        14.06386       -13.64510
   H       -8.55068        11.15535       -12.71655
   H      -10.80325         7.90308       -16.19173
   H      -12.70141        12.40097       -17.31660
   H      -12.27460         7.01058       -18.40433
*
