# ORCA input file
# SCF done       -184.870448859907          0.000920829735
! CAM-B3LYP def2-SVP def2/J RIJCOSX Grid4 TightSCF
%maxcore 5000
%tddft
    Mode sTDDFT
    Ethresh 5.0
    maxcore 5000
end

%pal
  nprocs 6
  end
* xyz 0 1
   C        5.91748         2.72838        -3.16209
   C        6.02621         3.45382        -4.31620
   F        7.16241         4.10451        -4.59786
   C        4.94923         3.52692        -5.22098
   F        5.08117         4.24562        -6.34463
   C        3.77732         2.87292        -4.95956
   C        3.63494         2.11864        -3.77946
   C        4.72319         2.04392        -2.86304
   C        4.60156         1.29450        -1.66894
   C        3.42834         0.64277        -1.39920
   C        2.34497         0.72355        -2.32206
   C        2.43361         1.43662        -3.48277
   C        1.21453        -0.04696        -1.79115
   O        0.11204        -0.20980        -2.31236
   C        1.65136        -0.58243        -0.50196
   C        3.01734        -0.18216        -0.26366
   C        3.80194        -0.51205         0.81213
   C        5.13540        -0.08799         0.97819
   N        6.22450         0.22500         1.16254
   C        3.37250        -1.32503         1.88011
   N        3.06108        -1.98423         2.76726
   C        0.80130        -1.31703         0.29454
   N       -0.44277        -1.57126        -0.12300
   C       -1.42770        -2.22139         0.54375
   S       -1.20956        -2.81828         2.15959
   C       -2.85737        -3.35815         2.15238
   N       -3.33926        -4.00527         3.29786
   O       -4.49679        -4.38130         3.28756
   O       -2.55716        -4.13787         4.22279
   C       -3.52317        -3.09121         0.98594
   C       -2.71554        -2.43904         0.03527
   C       -3.11795        -2.06561        -1.29555
   C       -4.39213        -1.98466        -1.72271
   C       -4.71971        -1.64989        -3.07708
   C       -5.94020        -1.41028        -3.58414
   C       -7.21758        -1.37197        -2.81583
   C       -6.06426        -1.04576        -5.04960
   N       -5.72625         0.34446        -5.26750
   C       -6.60778         1.34372        -5.05925
   C       -6.26885         2.66011        -5.00533
   C       -7.15491         3.73942        -4.80890
   C       -8.47140         3.73341        -4.42954
   C       -9.26888         4.89281        -4.24441
   C      -10.53049         4.65760        -3.79839
   C      -10.82356         3.28704        -3.59548
   S       -9.43226         2.31182        -4.01876
   C      -11.98931         2.72992        -3.12655
   C      -13.17835         3.40197        -2.74756
   C      -14.16207         2.59298        -2.28631
   C      -13.82060         1.20453        -2.26002
   S      -12.17811         0.99945        -2.88428
   C      -14.55094         0.13997        -1.86569
   C      -15.92553         0.22952        -1.28840
   C      -15.98748        -0.70745        -0.07619
   O      -15.49355        -0.52400         0.99397
   O      -16.68252        -1.81253        -0.38645
   C      -17.13884        -1.79740        -1.73306
   C      -17.08035        -0.31739        -2.15063
   C      -17.02047        -0.07603        -3.65425
   C      -16.00784        -0.95669        -4.37410
   C      -16.18440        -2.43819        -4.06820
   C      -16.28674        -2.77874        -2.57024
   O      -16.91256        -4.05640        -2.54030
   C      -17.64615        -4.26505        -3.64833
   O      -18.32830        -5.23098        -3.80764
   C      -17.44649        -3.10336        -4.61246
   H        6.75221         2.68302        -2.48020
   H        2.96188         2.93923        -5.66274
   H        5.44243         1.25949        -0.99558
   H        1.59875         1.48238        -4.16550
   H        1.09274        -1.69906         1.26401
   H       -0.65472        -1.17078        -1.05591
   H       -4.54575        -3.38279         0.83333
   H       -2.32526        -1.83207        -1.99474
   H       -5.20147        -2.17265        -1.03466
   H       -3.87109        -1.60062        -3.75049
   H       -7.07586        -1.58794        -1.76273
   H       -7.92305        -2.09323        -3.22886
   H       -7.67194        -0.38409        -2.90561
   H       -7.08824        -1.20393        -5.39354
   H       -5.38950        -1.65656        -5.65568
   H       -4.74647         0.57844        -5.18610
   H       -7.64062         1.03458        -5.01332
   H       -5.22608         2.91956        -5.13698
   H       -6.72735         4.72593        -4.94081
   H       -8.87188         5.87299        -4.44417
   H      -11.25440         5.42641        -3.59715
   H      -13.26654         4.47106        -2.82687
   H      -15.12253         2.94625        -1.95741
   H      -14.10042        -0.84075        -1.90819
   H      -16.12148         1.25272        -0.96716
   H      -18.16653        -2.17700        -1.72252
   H      -17.99499         0.15522        -1.77250
   H      -16.77333         0.97207        -3.83149
   H      -18.01633        -0.25041        -4.06757
   H      -14.99970        -0.65703        -4.08736
   H      -16.10323        -0.80743        -5.45113
   H      -15.31822        -2.97768        -4.46796
   H      -15.31079        -2.89184        -2.09058
   H      -18.31878        -2.45048        -4.55302
   H      -17.35520        -3.46361        -5.63459
*
