# ORCA input file
# SCF done       -166.307033574615          0.000586328798
! CAM-B3LYP def2-SVP def2/J RIJCOSX Grid4 TightSCF
%maxcore 5000
%tddft
    Mode sTDDFT
    Ethresh 5.0
    maxcore 5000
end

%pal
  nprocs 6
  end
* xyz 0 1
   C        3.02507       -14.47456         4.21109
   C        3.49134       -14.86561         3.01824
   C        3.83090       -16.19703         2.60059
   C        4.28256       -16.28701         1.33173
   C        4.34138       -15.04271         0.63975
   S        3.78807       -13.74416         1.68037
   C        4.75616       -14.82229        -0.64816
   C        5.22379       -15.76872        -1.59795
   C        5.54970       -15.23373        -2.79881
   C        5.37293       -13.82085        -2.88478
   S        4.76669       -13.21155        -1.34659
   C        5.55777       -13.07890        -4.01170
   N        5.42206       -11.72764        -4.14211
   C        5.63320       -10.78161        -3.19499
   S        6.74462       -11.00288        -1.87814
   C        6.60131        -9.31570        -1.48669
   N        7.31280        -8.84283        -0.39168
   O        7.21776        -7.65595        -0.11518
   O        7.99741        -9.65317         0.21816
   C        5.75678        -8.63178        -2.32778
   C        5.17667        -9.45911        -3.29557
   C        4.18618        -9.01579        -4.24920
   C        3.10172        -9.72228        -4.61211
   C        2.16208        -9.22135        -5.58017
   S        0.47103        -9.14164        -5.24831
   C        0.13440        -8.20511        -6.67215
   C        1.29806        -8.02443        -7.42911
   C        2.44027        -8.63126        -6.80546
   C        3.68355        -8.71363        -7.50444
   C        4.68815        -9.56444        -7.02342
   N        5.46185       -10.33730        -6.66429
   C        3.80237        -8.09624        -8.72755
   C        2.71408        -7.43748        -9.30855
   C        1.46897        -7.42601        -8.71591
   O        0.36808        -6.90041        -9.29707
   C        0.46290        -6.34486       -10.58963
   C       -1.22484        -7.78686        -6.81028
   C       -1.64745        -6.64906        -7.39311
   N       -2.94184        -6.21938        -7.54386
   C       -4.12809        -6.80068        -7.25648
   S       -4.29301        -8.36317        -6.53132
   C       -6.02482        -8.21170        -6.60004
   N       -6.77892        -9.27525        -6.11520
   O       -7.99494        -9.18056        -6.15382
   O       -6.15798       -10.23667        -5.68272
   C       -6.44234        -7.02791        -7.14525
   C       -5.37717        -6.19552        -7.53305
   C       -5.49945        -4.91458        -8.15259
   C       -6.65594        -4.26048        -8.43253
   C       -6.75510        -3.00632        -9.07908
   C       -5.77511        -2.22675        -9.63452
   C       -6.00268        -0.97505       -10.27286
   C       -4.89562        -0.37505       -10.77913
   C       -3.69889        -1.10819       -10.57957
   S       -4.05426        -2.59210        -9.71484
   C       -2.42195        -0.78636       -10.96079
   C       -1.98874         0.38180       -11.64865
   C       -0.65981         0.43118       -11.88392
   C        0.07503        -0.70168       -11.39710
   S       -1.05108        -1.83313       -10.62843
   C        1.39330        -0.92178       -11.47958
   H        2.86081       -15.18920         4.99825
   H        2.80561       -13.44395         4.42180
   H        3.72064       -17.02697         3.27603
   H        4.58235       -17.20464         0.85720
   H        5.30305       -16.81404        -1.35965
   H        5.92039       -15.79575        -3.63774
   H        5.78407       -13.59794        -4.93289
   H        5.30012       -11.35941        -5.09119
   H        5.54936        -7.58355        -2.21257
   H        4.32308        -8.01542        -4.64012
   H        2.86697       -10.65691        -4.12073
   H        4.73578        -8.14942        -9.26749
   H        2.86147        -6.97842       -10.27211
   H       -0.54612        -6.02360       -10.84304
   H        0.80246        -7.08374       -11.32079
   H        1.13003        -5.47782       -10.60585
   H       -1.92929        -8.43167        -6.30612
   H       -0.93330        -5.95470        -7.80336
   H       -3.03012        -5.30806        -7.97720
   H       -7.48338        -6.78981        -7.25877
   H       -4.57634        -4.42444        -8.42011
   H       -7.59614        -4.70832        -8.14445
   H       -7.75552        -2.60079        -9.16542
   H       -6.99456        -0.56235       -10.33417
   H       -4.90065         0.56978       -11.29222
   H       -2.68625         1.14635       -11.94188
   H       -0.15317         1.23512       -12.38753
   H        2.03918        -0.20620       -11.95635
   H        1.84721        -1.80825       -11.07626
*
