# ORCA input file
# SCF done       -214.629534445980          0.000949673317
! CAM-B3LYP def2-SVP def2/J RIJCOSX Grid4 TightSCF
%maxcore 5000
%tddft
    Mode sTDDFT
    Ethresh 5.0
    maxcore 5000
end

%pal
  nprocs 6
  end
* xyz 0 1
   C        3.59085         3.39048         7.28582
   C        2.41628         3.91004         7.75507
   F        2.26964         4.13034         9.07358
   C        1.34392         4.22718         6.91016
   C        1.47358         4.00992         5.56655
   C        2.66246         3.47614         5.02854
   C        3.74269         3.16269         5.90459
   C        4.94915         2.63433         5.38778
   C        5.06507         2.42565         4.04069
   C        3.97466         2.72083         3.17174
   C        2.80290         3.23879         3.64260
   C        4.34052         2.35460         1.79121
   O        3.69548         2.50713         0.77977
   C        5.66978         1.68825         1.90406
   C        6.17511         1.92131         3.23623
   C        7.49058         1.90816         3.62803
   C        7.92821         2.24315         4.92568
   N        8.34400         2.49970         5.96402
   C        8.56749         1.63738         2.76315
   N        9.47944         1.45770         2.08856
   C        6.14138         0.96999         0.84264
   C        7.13184        -0.02872         0.82186
   S        7.95228        -0.39771        -0.67320
   C        8.96957        -1.60390         0.06294
   C        8.63840        -1.73160         1.40214
   C        7.60119        -0.86640         1.83919
   C        7.26943        -1.09554         3.19379
   C        8.06130        -2.04992         3.76247
   C        7.99088        -2.48172         5.16300
   O        7.18415        -2.05921         5.95324
   O        8.92842        -3.39456         5.43221
   C        8.99170        -3.88886         6.76305
   S        9.23305        -2.74420         2.67512
   C        9.94648        -2.29743        -0.68426
   C       10.25477        -2.11581        -2.02457
   C       11.25095        -2.98766        -2.44950
   C       11.70554        -3.84293        -1.42575
   S       10.91240        -3.56139         0.06119
   C       12.69042        -4.70550        -1.96223
   C       12.86498        -4.39423        -3.32529
   C       11.97554        -3.29785        -3.67238
   C       11.85468        -2.68706        -4.88529
   C       10.94419        -1.63199        -5.10838
   N       10.20269        -0.77754        -5.29263
   C       12.64119        -3.06904        -5.99297
   N       13.28875        -3.37139        -6.88955
   C       13.79275        -5.21429        -3.95823
   C       14.33476        -6.15378        -3.09328
   S       13.67716        -6.00528        -1.46557
   C       15.26591        -7.17601        -3.38311
   S       15.62794        -8.39334        -2.20057
   C       16.65592        -9.30145        -3.28715
   C       16.73412        -8.62412        -4.49696
   C       15.97314        -7.42300        -4.56511
   C       16.15011        -6.76308        -5.80474
   C       17.01456        -7.42668        -6.62108
   C       17.46379        -7.07336        -7.97209
   O       18.25646        -7.72587        -8.60509
   O       16.89183        -5.94486        -8.40325
   C       17.25682        -5.52578        -9.71159
   S       17.65056        -8.90241        -5.93487
   C       17.27919       -10.47419        -2.82654
   C       17.82762       -11.49962        -3.54392
   C       18.81506       -12.39828        -2.88036
   O       19.06155       -12.44903        -1.69709
   C       19.44538       -13.15607        -3.97719
   C       20.48664       -14.03698        -3.92765
   C       20.94535       -14.62969        -5.12592
   C       20.31753       -14.28807        -6.35922
   C       20.78642       -14.87486        -7.55022
   C       21.82675       -15.76070        -7.49785
   C       22.45482       -16.11212        -6.29543
   C       22.01403       -15.54914        -5.12995
   F       22.27469       -16.32455        -8.63419
   C       19.23409       -13.37802        -6.37936
   C       18.79966       -12.82876        -5.20467
   C       17.70221       -11.90871        -4.91827
   C       16.62645       -11.67962        -5.74204
   C       15.45022       -11.03043        -5.32136
   N       14.46618       -10.53197        -5.00166
   C       16.51861       -12.18267        -7.05468
   N       16.37579       -12.56311        -8.12782
   H        4.39660         3.16002         7.96505
   H        0.44134         4.63424         7.33760
   H        0.66100         4.24543         4.89590
   H        5.74652         2.39404         6.07318
   H        1.99107         3.46260         2.96693
   H        5.64447         1.17141        -0.10181
   H        6.47779        -0.61564         3.73833
   H        9.30989        -4.92734         6.69991
   H        8.01243        -3.80971         7.23881
   H        9.71925        -3.30731         7.33238
   H        9.76263        -1.38179        -2.63701
   H       14.04362        -5.15663        -4.99927
   H       15.69395        -5.83710        -6.09896
   H       16.69025        -4.61880        -9.90423
   H       17.00684        -6.29963       -10.44000
   H       18.32990        -5.32966        -9.76105
   H       17.39780       -10.55597        -1.75026
   H       20.95615       -14.28003        -2.98621
   H       20.32446       -14.62953        -8.49369
   H       23.27064       -16.81718        -6.31561
   H       22.48251       -15.80383        -4.19118
   H       18.78167       -13.13006        -7.32634
*
