# ORCA input file
# SCF done       -169.229187653025          0.000528864339
! CAM-B3LYP def2-SVP def2/J RIJCOSX Grid4 TightSCF
%maxcore 5000
%tddft
    Mode sTDDFT
    Ethresh 5.0
    maxcore 5000
end

%pal
  nprocs 6
  end
* xyz 0 1
   C       -1.85451        -1.02700        -7.51281
   C       -0.74149        -1.46165        -8.21777
   C       -0.34011        -2.78839        -8.17235
   C       -1.04439        -3.72065        -7.42479
   C       -2.15519        -3.29785        -6.71384
   C       -2.56223        -1.94518        -6.75366
   C       -3.74074        -1.78409        -5.91021
   C       -4.45523        -0.62452        -5.75753
   C       -4.14717         0.58928        -6.40796
   N       -3.95894         1.61207        -6.89439
   C       -5.60874        -0.45517        -4.96359
   N       -6.55127        -0.22421        -4.34812
   C       -3.97645        -3.06892        -5.26072
   C       -3.09728        -4.03773        -5.88866
   C       -3.22819        -5.40510        -5.85648
   C       -4.36532        -6.08567        -5.37779
   N       -5.29396        -6.69673        -5.09039
   C       -2.29395        -6.30089        -6.41013
   N       -1.54516        -7.08332        -6.79343
   C       -4.83384        -3.24776        -4.20445
   C       -4.94379        -4.32161        -3.27480
   C       -6.22945        -4.62891        -2.81788
   C       -6.48761        -5.71278        -2.00360
   C       -5.46471        -6.51705        -1.49903
   C       -4.13970        -6.29430        -1.97572
   C       -3.07207        -7.19142        -1.84312
  Si       -1.63067        -6.12237        -2.04974
   C       -2.51204        -4.99167        -3.16894
   C       -3.85624        -5.13230        -2.81958
   C       -5.80834        -7.52786        -0.54831
   C       -5.12370        -7.89993         0.57437
   C       -5.52077        -8.91945         1.48277
   C       -4.72257        -9.04820         2.57494
   C       -3.65614        -8.11936         2.61842
   S       -3.68845        -7.08978         1.20046
   C       -2.69359        -7.97801         3.59522
   C       -2.51584        -8.75781         4.76210
   C       -1.46165        -8.37070         5.52742
   C       -0.75179        -7.24201         5.03343
   S       -1.47984        -6.71588         3.51709
   C        0.38292        -6.71853         5.58843
   C        1.14999        -5.59426         5.15515
   C        2.54136        -5.67741         5.24157
   C        3.36509        -4.70059         4.72210
   C        2.86942        -3.51798         4.16191
   C        1.45014        -3.35946         4.07488
   C        0.76794        -2.25538         3.56127
  Si       -0.97022        -2.78678         3.48720
   C       -0.75377        -3.99482         4.81301
   C        0.58215        -4.38480         4.65689
   C        3.83144        -2.54351         3.77164
   C        3.76922        -1.17218         3.78032
   C        4.68139        -0.31212         3.03459
   C        5.84195        -0.67184         2.40029
   C        6.41732        -1.95954         2.38059
   N        6.96105        -2.96941         2.30898
   C        6.66143         0.22109         1.67749
   N        7.37581         0.88287         1.06913
   C        4.11119         1.02982         3.05488
   C        2.95447         1.02075         3.86662
   C        2.20930         2.17451         4.04426
   C        2.62117         3.33574         3.40711
   C        3.76028         3.34868         2.61621
   C        4.51667         2.20009         2.43347
   C        2.79681        -0.31212         4.42745
   C        1.99229        -0.64088         5.49228
   C        0.99678         0.20313         6.01930
   N        0.13349         0.82205         6.45697
   C        2.13844        -1.80740         6.26873
   N        2.26460        -2.68925         6.99313
   H       -2.15051         0.00771        -7.56170
   H       -0.18161        -0.75323        -8.80898
   H        0.53119        -3.10333        -8.72617
   H       -0.72212        -4.74873        -7.39681
   H       -5.55270        -2.45528        -4.03892
   H       -7.05643        -4.03039        -3.17154
   H       -7.50573        -5.91682        -1.70635
   H       -3.18411        -8.08523        -1.25256
   H       -2.15475        -4.08810        -3.63785
   H       -6.78520        -7.98064        -0.67209
   H       -6.38281        -9.53132         1.28388
   H       -4.87455        -9.77374         3.35342
   H       -3.16295        -9.58355         4.99647
   H       -1.16944        -8.84834         6.44586
   H        0.81439        -7.29850         6.39615
   H        2.98384        -6.55722         5.68518
   H        4.43569        -4.81880         4.80626
   H        1.27868        -1.52372         2.95491
   H       -1.47004        -4.67170         5.24748
   H        4.76039        -2.97091         3.41582
   H        1.32202         2.17703         4.65610
   H        2.04564         4.24037         3.53160
   H        4.06584         4.26410         2.13301
   H        5.39888         2.23105         1.81595
*
