# ORCA input file
# SCF done       -189.186176150902          0.000919630950
! CAM-B3LYP def2-SVP def2/J RIJCOSX Grid4 TightSCF
%maxcore 5000
%tddft
    Mode sTDDFT
    Ethresh 5.0
    maxcore 5000
end

%pal
  nprocs 6
  end
* xyz 0 1
   C       -9.87832         2.53802         1.83355
   C      -11.23479         2.65148         1.71383
   F      -11.82332         3.84888         1.82884
   C      -12.03129         1.51428         1.46932
   F      -13.35886         1.65540         1.35859
   C      -11.45955         0.27903         1.34698
   C      -10.06413         0.12907         1.46625
   C       -9.25751         1.27799         1.71349
   C       -7.85569         1.15160         1.83836
   C       -7.27726        -0.08551         1.71716
   C       -8.09067        -1.22702         1.47281
   C       -9.44746        -1.13623         1.35107
   C       -7.24579        -2.43485         1.40545
   O       -7.62532        -3.57821         1.29813
   C       -5.85108        -1.95411         1.62951
   C       -5.88447        -0.51073         1.79696
   C       -4.80086         0.31500         1.92987
   C       -4.88637         1.71817         2.05463
   N       -4.89385         2.86039         2.16572
   C       -3.45621        -0.11387         1.94323
   N       -2.34212        -0.38931         1.95636
   C       -4.79245        -2.77852         1.82588
   C       -4.78017        -4.18515         1.51093
   C       -4.18473        -5.10472         2.37914
   C       -4.20241        -6.44835         2.09833
   F       -3.63558        -7.27441         3.01141
   C       -4.75757        -6.98258         0.92235
   C       -5.29205        -6.04474         0.02554
   C       -5.30921        -4.70383         0.31958
   F       -5.77570        -3.86062        -0.61525
   C       -4.77594        -8.38482         0.60853
   N       -4.47512        -9.36865         1.52534
   C       -4.58733       -10.57496         0.91726
   C       -4.47201       -11.94721         1.11628
   C       -4.76857       -12.54205        -0.11559
   N       -5.05920       -11.55815        -1.04116
   C       -4.96116       -10.34876        -0.43222
   C       -5.08465        -8.97669        -0.62280
   C       -4.78498       -13.91310        -0.48403
   C       -4.58922       -14.93915         0.37546
   C       -4.56871       -16.33292         0.03776
   C       -4.60272       -16.83076        -1.27108
   C       -4.52291       -18.17956        -1.51391
   F       -4.58124       -18.58863        -2.79972
   C       -4.43417       -19.13856        -0.49356
   C       -4.46535       -18.64829         0.81930
   C       -4.50200       -17.29894         1.05966
   F       -4.49417       -16.88308         2.34097
   C       -4.38543       -20.55678        -0.71690
   C       -3.86814       -21.27631        -1.74228
   C       -4.28468       -22.70364        -1.89032
   O       -4.87842       -23.36766        -1.07397
   C       -3.86279       -23.09364        -3.24900
   C       -4.10759       -24.25603        -3.92232
   C       -3.61894       -24.40209        -5.23965
   C       -2.89018       -23.33279        -5.83754
   C       -2.40979       -23.48318        -7.15417
   C       -2.63909       -24.64080        -7.84306
   C       -3.35926       -25.69781        -7.25052
   C       -3.83958       -25.58234        -5.97632
   F       -3.57014       -26.82063        -7.95036
   F       -2.17994       -24.78271        -9.09325
   C       -2.64934       -22.14250        -5.11448
   C       -3.12223       -22.02742        -3.83432
   C       -2.99601       -20.95201        -2.85475
   C       -2.05773       -19.95695        -2.89522
   C       -1.80303       -19.07004        -1.83033
   N       -1.54046       -18.34825        -0.97737
   C       -1.18050       -19.74609        -3.97979
   N       -0.45325       -19.52188        -4.83873
   H       -9.28338         3.41854         2.01962
   H      -12.08269        -0.58148         1.16013
   H       -7.27394         2.03802         2.03300
   H      -10.04071        -2.01911         1.16768
   H       -3.88727        -2.39233         2.27690
   H       -3.73842        -4.76729         3.30179
   H       -5.71688        -6.36955        -0.90887
   H       -4.21804        -9.20991         2.48410
   H       -4.20207       -12.46191         2.01511
   H       -5.30769       -11.73121        -1.99999
   H       -5.33984        -8.46445        -1.52735
   H       -4.97801       -14.11222        -1.52999
   H       -4.43776       -14.71534         1.42099
   H       -4.66813       -16.16349        -2.11451
   H       -4.41538       -19.33394         1.65059
   H       -4.88857       -21.15536         0.03787
   H       -4.66606       -25.05337        -3.45603
   H       -1.85387       -22.68526        -7.62118
   H       -4.38885       -26.40030        -5.53706
   H       -2.10456       -21.34551        -5.59458
*
