# ORCA input file
# SCF done       -192.837714493622          0.000754759435
! CAM-B3LYP def2-SVP def2/J RIJCOSX Grid4 TightSCF
%maxcore 5000
%tddft
    Mode sTDDFT
    Ethresh 5.0
    maxcore 5000
end

%pal
  nprocs 6
  end
* xyz 0 1
   C        2.47944        -0.50636        -6.29055
   C        1.70255         0.34624        -7.01452
   C        1.32001         1.46443        -6.24917
   C        1.83059         1.41973        -4.94632
   S        2.76798         0.02178        -4.66591
   C        1.39751         2.58345        -4.24798
   C        0.61372         3.35537        -5.11587
   C        0.54046         2.67822        -6.40537
   C       -0.11934         3.10714        -7.51953
   C       -0.84181         4.31859        -7.54170
   N       -1.42964         5.30296        -7.56321
   C       -0.12059         2.37179        -8.72354
   N       -0.12559         1.77872        -9.70476
   C        0.13853         4.52620        -4.52371
   C        0.55948         4.64829        -3.21295
   S        1.55588         3.29291        -2.70390
   C        0.27904         5.70681        -2.31084
   C        0.72795         5.85353        -1.01143
   C        0.25876         7.03110        -0.42803
   C       -0.55634         7.78068        -1.29127
   S       -0.74449         7.04145        -2.81963
   C       -0.97413         8.95375        -0.61457
   C       -0.42060         8.94950         0.67700
   C        0.36561         7.73659         0.84101
   C        1.05007         7.33787         1.95046
   C        1.06236         8.09749         3.14008
   N        1.07075         8.70340         4.11300
   C        1.77997         6.13062         1.98472
   N        2.37267         5.14953         2.01160
   C       -0.76570        10.07629         1.42416
   C       -1.57914        10.93881         0.71229
   S       -1.92721        10.33655        -0.90651
   C       -2.14378        12.18161         1.10218
   S       -3.45786        12.84351         0.17495
   C       -3.55356        14.25574         1.18276
   C       -2.59912        14.19059         2.19157
   C       -1.80557        13.03234         2.14814
   S       -0.42365        12.69576         3.18572
   C       -0.06942        14.16048         4.12251
   O        1.01536        14.23924         4.62298
   C       -1.11461        15.21609         4.41332
   O       -0.97099        15.94618         5.35384
   S       -2.54986        15.45376         3.41474
   C       -4.49099        15.28895         0.94873
   C       -5.42695        15.23404        -0.03131
   C       -6.38027        16.23925        -0.31986
   C       -6.54296        17.49678         0.24147
   C       -7.60898        18.18987        -0.32608
   C       -8.27323        17.45519        -1.32649
   S       -7.57559        15.92037        -1.57238
   C       -9.34115        18.23825        -1.82910
   C       -9.35189        19.47058        -1.15461
   C       -8.26268        19.48359        -0.19079
   C       -7.92241        20.49607         0.65688
   C       -8.63490        21.71332         0.69415
   N       -9.21413        22.70241         0.72408
   C       -6.83375        20.39131         1.54837
   N       -5.94755        20.30687         2.27076
   C      -10.37901        20.31362        -1.58092
   C      -11.14975        19.72983        -2.56872
   S      -10.59440        18.11426        -2.98327
   C      -12.27806        20.27904        -3.23042
   C      -13.07216        19.67056        -4.18407
   C      -14.10237        20.50766        -4.61434
   C      -14.08772        21.75982        -3.98568
   S      -12.81229        21.91243        -2.86173
   C      -15.17146        22.53212        -4.49417
   C      -15.86384        21.76367        -5.43776
   C      -15.22295        20.46655        -5.54677
   C      -15.58744        19.42087        -6.34338
   C      -16.69881        19.48621        -7.20991
   N      -17.60093        19.53362        -7.91605
   C      -14.87669        18.20230        -6.35000
   N      -14.30318        17.20927        -6.35444
   C      -16.95676        22.45452        -5.99523
   C      -17.06809        23.70757        -5.47362
   S      -15.85466        24.08307        -4.29529
   H        2.91240        -1.43257        -6.61138
   H        1.42359         0.17694        -8.03837
   H       -0.47930         5.26096        -5.00813
   H        1.36584         5.13355        -0.53095
   H       -0.46161        10.24948         2.43899
   H       -4.42815        16.14277         1.60774
   H       -5.46897        14.34821        -0.65354
   H       -5.90828        17.87918         1.01916
   H      -10.57065        21.30066        -1.19984
   H      -12.89786        18.66915        -4.53495
   H      -17.62339        22.05477        -6.73726
   H      -17.80014        24.45385        -5.70899
*
