# ORCA input file
# SCF done       -224.866435562009          0.006902890950
! CAM-B3LYP def2-SVP def2/J RIJCOSX Grid4 TightSCF
%maxcore 5000
%tddft
    Mode sTDDFT
    Ethresh 5.0
    maxcore 5000
end

%pal
  nprocs 6
  end
* xyz 0 1
   C       -4.41815        -2.64124        -5.81655
   C       -5.47069        -2.45290        -6.66619
   F       -5.45313        -1.44478        -7.55147
   C       -6.57647        -3.32179        -6.63538
   F       -7.59122        -3.12727        -7.49616
   C       -6.61595        -4.37054        -5.76106
   C       -5.54147        -4.59952        -4.88267
   C       -4.42758        -3.71301        -4.90235
   C       -3.35998        -3.89184        -3.99456
   C       -3.42677        -4.90273        -3.07350
   C       -4.53896        -5.78834        -3.06633
   C       -5.56070        -5.67019        -3.96262
   C       -4.42091        -6.70026        -1.90905
   O       -5.04208        -7.72219        -1.71345
   C       -3.29562        -6.15450        -1.10177
   C       -2.56216        -5.23081        -1.94134
   C       -1.30457        -4.72407        -1.73309
   C       -0.48646        -5.02026        -0.62275
   N        0.22106        -5.20957         0.26232
   C       -0.65227        -3.87551        -2.65106
   N       -0.07000        -3.19935        -3.37281
   C       -3.01822        -6.47305         0.20476
   C       -3.90437        -7.03813         1.13952
   C       -3.53439        -7.80014         2.23792
   C       -4.71041        -8.27385         2.86808
   C       -4.76183        -9.07408         4.01389
   N       -4.81708        -9.73382         4.95286
   C       -5.82936        -7.79431         2.16541
   C       -5.38091        -7.00118         1.11251
   C       -6.15522        -6.20471         0.24530
   C       -7.40785        -6.61647        -0.40556
   C       -7.76385        -5.57129        -1.29885
   C       -6.80310        -4.57359        -1.21266
   C       -5.80727        -4.96576        -0.27777
   C       -6.74953        -3.40710        -1.98751
   N       -6.67268        -2.47731        -2.65763
   C       -7.97371        -7.86470        -0.28919
   C       -9.04149        -8.35629        -1.05368
   C       -9.55969        -9.60530        -0.85499
   C      -10.56260       -10.20404        -1.63892
   C      -11.17506       -11.43096        -1.40944
   C      -12.09734       -11.78369        -2.37873
   C      -12.20970       -10.84403        -3.39591
   S      -11.16849        -9.48699        -3.10767
   C      -12.94676       -10.96279        -4.59801
   C      -13.73115       -12.03372        -5.01177
   C      -14.16798       -11.91318        -6.31954
   C      -13.68892       -10.77840        -6.96774
   S      -12.81115        -9.77309        -5.84810
   C      -13.86565       -10.50012        -8.33966
   C      -13.10622        -9.75863        -9.20834
   C      -13.60869        -9.35660       -10.48182
   C      -12.69944        -8.49037       -11.06445
   C      -12.85130        -7.86349       -12.31196
   N      -12.98593        -7.36116       -13.33326
   C      -11.57456        -8.34952       -10.20705
   C      -11.76989        -9.13975        -9.07773
   C      -10.78941        -9.41438        -8.10864
   C       -9.73139        -8.48799        -7.67716
   C       -8.98684        -9.13846        -6.71963
   C       -9.52653       -10.45151        -6.53931
   C      -10.60373       -10.61725        -7.40235
   C       -9.13811       -11.36180        -5.55586
   N       -8.88788       -12.08977        -4.70112
   C       -9.69075        -7.13195        -8.10769
   C       -8.61952        -6.31198        -8.27970
   C       -7.25852        -6.60706        -8.03935
   C       -6.20435        -5.90742        -8.55573
   C       -4.87833        -5.92468        -7.89012
   O       -4.51687        -6.67025        -7.00546
   C       -4.14501        -4.77733        -8.46147
   C       -2.93205        -4.26652        -8.09902
   C       -2.44837        -3.11168        -8.75531
   C       -3.23420        -2.50793        -9.77939
   C       -2.74482        -1.36083       -10.43450
   C       -1.52989        -0.83817       -10.09051
   C       -0.75714        -1.43026        -9.07148
   C       -1.20602        -2.54199        -8.41451
   F        0.42662        -0.89141        -8.75430
   F       -1.05785         0.24419       -10.72095
   C       -4.48749        -3.05757       -10.13276
   C       -4.93449        -4.17653        -9.48421
   C       -6.16283        -4.95011        -9.63592
   C       -7.00176        -4.91371       -10.72023
   C       -8.01970        -5.85840       -10.95955
   N       -8.82383        -6.63407       -11.22627
   C       -6.87421        -3.99348       -11.78210
   N       -6.83244        -3.26550       -12.67018
   H       -3.58267        -1.95961        -5.84474
   H       -7.47539        -5.02245        -5.74745
   H       -2.53426        -3.19929        -4.02585
   H       -6.39098        -6.35950        -3.94327
   H       -2.02900        -6.24778         0.58800
   H       -2.53165        -8.05472         2.52693
   H       -6.84916        -7.91642         2.48148
   H       -8.62475        -5.55149        -1.93973
   H       -4.97406        -4.35626         0.01872
   H       -7.52938        -8.55070         0.41930
   H       -9.45675        -7.74099        -1.84032
   H       -9.17893       -10.20912        -0.04044
   H      -10.93787       -12.04067        -0.55608
   H      -12.65673       -12.70066        -2.36741
   H      -13.95079       -12.87553        -4.38248
   H      -14.75769       -12.65655        -6.82585
   H      -14.74191       -10.97185        -8.77522
   H      -14.56824        -9.62854       -10.88098
   H      -10.67765        -7.81840       -10.46912
   H       -8.17716        -8.74621        -6.13367
   H      -11.15780       -11.52637        -7.54471
   H      -10.64955        -6.73087        -8.41168
   H       -8.82264        -5.32723        -8.68272
   H       -6.99745        -7.38523        -7.33537
   H       -2.34931        -4.73482        -7.32040
   H       -3.32628        -0.89444       -11.21377
   H       -0.60303        -2.98154        -7.63563
   H       -5.07297        -2.56937       -10.89500
*
