# ORCA input file
# SCF done       -186.481940382297          0.000595193599
! CAM-B3LYP def2-SVP def2/J RIJCOSX Grid4 TightSCF
%maxcore 5000
%tddft
    Mode sTDDFT
    Ethresh 5.0
    maxcore 5000
end

%pal
  nprocs 6
  end
* xyz 0 1
   C       -0.58842        -1.57799         3.65784
   O       -0.38969        -2.04531         4.76243
   N       -1.70023        -0.79864         3.41183
   C       -2.62621        -0.53790         4.50208
   C       -2.02547        -0.22031         2.20150
   O       -3.01356         0.46466         2.07945
   N       -1.16643        -0.47619         1.15379
   C       -1.49602         0.08725        -0.14580
   C       -0.01665        -1.24557         1.21018
   O        0.61990        -1.42146         0.18987
   C        0.32500        -1.79037         2.52066
   C        1.44367        -2.51914         2.83595
   C        2.58544        -2.92991         2.12573
   C        3.02834        -2.74127         0.82198
   C        4.26465        -3.32788         0.59221
   C        4.78693        -3.98959         1.73110
   S        3.75297        -3.87679         3.07252
   C        6.03870        -4.54803         1.39317
   C        6.31656        -4.24313         0.04841
   C        5.20564        -3.47939        -0.50371
   C        5.08984        -3.03158        -1.78687
   C        6.06417        -3.32444        -2.76639
   N        6.84119        -3.59542        -3.56535
   C        3.99062        -2.27578        -2.25041
   N        3.11840        -1.65793        -2.66343
   C        7.54974        -4.72297        -0.37591
   C        8.22146        -5.40144         0.63131
   S        7.29710        -5.45022         2.12359
   C        9.51258        -5.99914         0.54905
   C       10.36624        -5.74169        -0.49880
   C       11.63562        -6.28923        -0.64296
   C       12.17638        -7.23755         0.33242
   C       11.52006        -7.62270         1.44925
   S        9.95180        -7.06876         1.87310
   C       13.46320        -7.58542        -0.16345
   C       13.72168        -6.90169        -1.35619
   C       14.99948        -7.21816        -1.86991
   C       15.65457        -8.10786        -1.07884
   S       14.76174        -8.59945         0.31830
   C       12.58423        -6.07421        -1.66799
   C       12.38036        -5.17590        -2.73372
   C       13.20487        -4.92507        -3.78766
   C       12.90104        -3.96599        -4.78196
   C       11.82805        -3.08226        -4.83459
   C       11.86248        -2.28122        -5.96709
   C       12.96411        -2.54594        -6.80489
   S       13.96242        -3.78222        -6.17252
   C       12.90176        -1.69659        -7.93115
   C       11.74219        -0.88677        -7.80295
   C       11.06588        -1.21849        -6.56062
   C        9.94650        -0.64361        -6.03278
   C        9.24862         0.38721        -6.69674
   N        8.67872         1.22480        -7.23352
   C        9.43816        -1.01286        -4.76925
   N        9.04358        -1.28788        -3.72781
   C       11.59613        -0.01755        -8.86459
   C       12.62514        -0.13888        -9.80878
   S       13.79700        -1.37427        -9.34349
   C       12.66944         0.64984       -10.96158
   C       13.56372         0.73296       -12.00516
   C       14.76130        -0.06853       -12.11274
   O       15.09038        -0.91512       -11.28892
   N       15.55622         0.16022       -13.21500
   C       15.29683         1.07809       -14.21827
   O       16.05420         1.20991       -15.15069
   N       14.14142         1.81504       -14.08856
   C       13.23986         1.71614       -13.04232
   O       12.25069         2.41965       -13.02185
   C       13.83121         2.78622       -15.12483
   C       16.77964        -0.60930       -13.37213
   H       -2.23247        -1.02002         5.39325
   H       -3.60838        -0.93960         4.25488
   H       -2.71629         0.53671         4.65608
   H       -2.39163         0.69208        -0.03461
   H       -1.66511        -0.71736        -0.86115
   H       -0.66347         0.69467        -0.49904
   H        1.44597        -2.83303         3.87858
   H        2.44808        -2.19738         0.09840
   H        7.93207        -4.59881        -1.37134
   H       10.01774        -5.05072        -1.25119
   H       11.93971        -8.31209         2.16461
   H       15.42836        -6.82003        -2.77057
   H       16.63348        -8.51963        -1.22853
   H       11.45236        -4.62397        -2.69266
   H       14.12921        -5.46876        -3.90416
   H       11.06624        -3.02590        -4.08021
   H       10.79260         0.68764        -8.98301
   H       11.83558         1.34131       -11.05808
   H       14.58644         2.70601       -15.90194
   H       13.83021         3.78904       -14.69805
   H       12.84063         2.57866       -15.52787
   H       16.85623        -1.29070       -12.52878
   H       17.63547         0.06448       -13.39668
   H       16.74558        -1.16416       -14.30902
*
