# ORCA input file
# SCF done       -215.744866760275          0.000230984004
! CAM-B3LYP def2-SVP def2/J RIJCOSX Grid4 TightSCF
%maxcore 5000
%tddft
    Mode sTDDFT
    Ethresh 5.0
    maxcore 5000
end

%pal
  nprocs 6
  end
* xyz 0 1
   C       -0.58462         1.45083         5.22476
   C       -1.62782         0.61892         5.60879
   N       -1.82792        -0.71922         5.34497
   C       -0.94730        -1.48476         4.49880
   C        0.22026        -2.09305         5.27614
   C       -2.99526        -1.11832         5.95099
   C       -3.58592         0.00368         6.59024
   C       -2.69914         1.11214         6.38450
   C       -2.72894         2.44497         6.77241
   C       -1.68954         3.26660         6.38543
   C       -0.63361         2.77314         5.62225
   C       -4.81016        -0.09518         7.23165
   C       -5.45976        -1.31618         7.22797
   C       -4.88725        -2.41703         6.61383
   C       -3.64230        -2.36810         5.97762
   C       -3.05765        -3.57461         5.43738
   C       -3.74517        -4.60921         4.91106
   C       -3.12161        -5.77401         4.37809
   C       -1.77256        -6.03857         4.21643
   C       -1.54529        -7.27552         3.61638
   C       -2.72913        -7.97180         3.32008
   S       -4.12001        -7.08895         3.77611
   C       -2.38612        -9.20644         2.71361
   C       -0.98393        -9.28763         2.63097
   C       -0.40977        -8.07354         3.18115
   C        0.91264        -7.73573         3.23889
   C        1.33349        -6.49130         3.75047
   N        1.65058        -5.46639         4.15672
   C        1.91790        -8.60303         2.76614
   N        2.72074        -9.32250         2.37436
   C       -0.54240       -10.46596         2.03447
   C       -1.59137       -11.28290         1.65631
   S       -3.15587       -10.58225         2.05339
   C       -1.47945       -12.53336         1.00063
   C       -2.48609       -13.37182         0.55110
   C       -1.96802       -14.50245        -0.08077
   C       -0.56169       -14.51636        -0.09890
   S        0.12576       -13.15730         0.65981
   C       -0.13331       -15.67266        -0.78783
   C       -1.26064       -16.40263        -1.20691
   C       -2.45213       -15.69079        -0.76976
   C       -3.75103       -16.05457        -0.97481
   C       -4.83042       -15.27533        -0.50898
   N       -5.70986       -14.64274        -0.13310
   C       -4.09639       -17.23123        -1.67144
   N       -4.37725       -18.18578        -2.24159
   C       -0.92415       -17.55474        -1.91835
   C        0.44534       -17.71070        -2.03953
   S        1.32957       -16.39556        -1.26145
   C        1.18470       -18.72954        -2.70382
   C        2.55789       -18.78754        -2.60514
   C        3.38077       -19.69766        -3.25204
   C        2.79806       -20.76273        -4.07363
   C        1.47101       -20.90977        -4.29488
   S        0.26515       -19.86485        -3.66637
   C        3.89847       -21.54479        -4.52241
   C        5.08551       -21.01466        -4.02116
   C        6.21450       -21.74998        -4.44100
   C        5.86104       -22.79779        -5.23199
   S        4.15729       -22.93434        -5.50012
   C        4.79164       -19.84268        -3.22807
   C        5.79165       -19.08799        -2.59486
   C        5.67758       -17.88911        -1.93447
   C        6.76611       -17.26672        -1.31704
   C        6.74960       -16.10672        -0.57231
   C        8.00231       -15.34375        -0.37843
   O        9.13009       -15.71431        -0.62485
   C        7.58070       -14.01908         0.12995
   C        8.33872       -12.91606         0.38999
   C        7.70506       -11.73830         0.84950
   C        6.29149       -11.72664         1.02868
   C        5.66589       -10.54753         1.48198
   C        6.41316        -9.43343         1.74584
   C        7.81021        -9.44619         1.56979
   C        8.44513       -10.57441         1.13145
   F        8.51843        -8.33696         1.83568
   F        5.82313        -8.30872         2.17630
   C        5.53349       -12.89110         0.75819
   C        6.16952       -14.02108         0.31971
   C        5.66872       -15.36008         0.00628
   C        4.44454       -15.84826         0.41067
   C        4.10151       -17.21269         0.42217
   N        3.77347       -18.31195         0.49649
   C        3.41953       -15.05946         0.95724
   N        2.52024       -14.47464         1.37219
   H        0.24607         1.08906         4.63821
   H       -0.55865        -0.81419         3.72625
   H       -1.53111        -2.26102         3.99752
   H        0.85444        -1.30626         5.67711
   H        0.81771        -2.72731         4.62647
   H       -0.13707        -2.68967         6.11296
   H       -3.54713         2.82543         7.36488
   H       -1.68903         4.30619         6.67689
   H        0.16673         3.43954         5.33631
   H       -5.24295         0.76551         7.71764
   H       -6.41565        -1.42101         7.71859
   H       -5.39704        -3.36711         6.66480
   H       -1.98403        -3.65624         5.49178
   H       -4.82309        -4.57178         4.83962
   H       -0.99507        -5.35974         4.51255
   H        0.48628       -10.73298         1.87361
   H       -3.53114       -13.15279         0.67907
   H       -1.62951       -18.25563        -2.32798
   H        3.00479       -18.07473        -1.93287
   H        1.07230       -21.70807        -4.90086
   H        7.23229       -21.52563        -4.17858
   H        6.50698       -23.52122        -5.68988
   H        6.78271       -19.52663        -2.63182
   H        4.73557       -17.36761        -1.91800
   H        7.75419       -17.67746        -1.49758
   H        9.40871       -12.93915         0.24937
   H        4.59785       -10.51142         1.63121
   H        9.51610       -10.56876         1.00196
   H        4.46488       -12.85326         0.89911
*
