# ORCA input file
# SCF done       -185.038126945881          0.000757027302
! CAM-B3LYP def2-SVP def2/J RIJCOSX Grid4 TightSCF
%maxcore 5000
%tddft
    Mode sTDDFT
    Ethresh 5.0
    maxcore 5000
end

%pal
  nprocs 6
  end
* xyz 0 1
   C       -1.05031        -1.64866        -2.97581
   N        0.11712        -1.25255        -3.38428
   O        0.42905        -0.13361        -2.72199
   C       -0.56992         0.19132        -1.86690
   C       -0.37237         1.38903        -1.07434
   O       -1.14109         1.83875        -0.26125
   C       -1.57779        -0.76897        -1.98517
   C       -2.83515        -0.91032        -1.33025
   C       -3.42253        -0.10702        -0.37457
   C       -4.67344        -0.59155         0.01303
   C       -5.03473        -1.77563        -0.65572
   S       -3.84394        -2.29090        -1.75697
   C       -6.31280        -2.18590        -0.19953
   C       -6.76320        -1.26040         0.75480
   C       -5.74578        -0.22998         0.92496
   C       -5.80396         0.83530         1.77264
   C       -6.91910         1.05287         2.61118
   N       -7.82561         1.22542         3.29151
   C       -4.77391         1.79448         1.89091
   N       -3.95980         2.59075         2.01618
   C       -8.02225        -1.57577         1.26346
   C       -8.52893        -2.73642         0.70653
   S       -7.43340        -3.44871        -0.46708
   C       -9.77367        -3.35378         0.98895
   C      -10.25975        -4.54738         0.48747
   C      -11.52447        -4.84801         0.99278
   C      -12.00455        -3.86914         1.88113
   S      -10.89955        -2.58602         2.10019
   C      -13.28674        -4.26199         2.33565
   C      -13.61707        -5.49283         1.74208
   C      -12.52045        -5.90025         0.87578
   C      -12.44643        -7.02931         0.11439
   C      -13.48661        -7.98202         0.08520
   N      -14.33373        -8.75424         0.06094
   C      -11.32593        -7.31572        -0.69381
   N      -10.41420        -7.54766        -1.34905
   C      -14.86771        -5.96587         2.13190
   C      -15.50098        -5.10395         3.01172
   S      -14.51920        -3.68363         3.36370
   C      -16.78479        -5.25773         3.60880
   C      -17.35947        -4.28518         4.39639
   C      -18.61020        -4.38527         4.99489
   C      -19.43446        -5.58397         4.83774
   C      -19.06980        -6.66219         4.10784
   S      -17.58497        -6.78260         3.26112
   C      -20.61881        -5.32713         5.58094
   C      -20.55994        -4.05650         6.16027
   C      -21.72578        -3.77207         6.90763
   C      -22.60817        -4.80516         6.87225
   S      -22.07519        -6.16101         5.94032
   C      -19.30080        -3.44582         5.79838
   C      -18.81854        -2.17069         6.13346
   C      -19.49326        -1.23114         6.86579
   C      -18.94999         0.03136         7.13701
   C      -19.59359         1.01922         7.84559
   C      -19.09055         2.34176         8.13882
   C      -17.87219         2.86683         7.77985
   C      -17.44761         4.17207         8.10030
   N      -17.04029         5.22150         8.32749
   C      -16.87304         2.19719         7.04582
   N      -16.01081         1.72343         6.45167
   C      -20.11923         3.05099         8.89598
   C      -21.22909         2.18947         9.07116
   C      -20.94474         0.89005         8.42918
   O      -21.69020        -0.07110         8.40292
   C      -22.36522         2.56937         9.74197
   C      -22.41079         3.86538        10.26674
   C      -21.29740         4.71918        10.08848
   C      -20.14727         4.33358         9.41005
   S      -21.56351         6.27607        10.81412
   C      -23.14573         5.76464        11.33856
   C      -23.46057         4.49467        10.99049
  Br      -24.23384         6.95620        12.29560
   H       -1.49922        -2.53463        -3.37799
   H        0.59543         1.87151        -1.29586
   H       -2.94956         0.78064         0.00710
   H       -8.55542        -1.00434         2.00182
   H       -9.70758        -5.15590        -0.20615
   H      -15.30953        -6.88644         1.79543
   H      -16.78378        -3.38103         4.54536
   H      -19.69757        -7.53275         4.00255
   H      -21.92621        -2.86665         7.44974
   H      -23.56766        -4.86064         7.34807
   H      -17.83222        -1.91040         5.76743
   H      -20.47763        -1.44411         7.24345
   H      -17.95906         0.23211         6.75084
   H      -23.19421         1.88878         9.85767
   H      -19.32710         5.02315         9.30174
   H      -24.39383         4.01975        11.23240
*
