# ORCA input file
# SCF done       -163.322563446999          0.000937975767
! CAM-B3LYP def2-SVP def2/J RIJCOSX Grid4 TightSCF
%maxcore 5000
%tddft
    Mode sTDDFT
    Ethresh 5.0
    maxcore 5000
end

%pal
  nprocs 6
  end
* xyz 0 1
   C        1.69945        -1.23483         2.00154
   C        2.70383        -2.15797         1.31084
   C        2.73410        -1.93586        -0.17332
   C        2.29263        -2.94362        -1.03673
   C        2.28711        -2.59101        -2.37007
   C        1.92956        -3.33949        -3.52209
   C        1.64558        -4.66315        -3.52876
   C        1.32904        -5.46945        -4.66941
   C        1.18036        -6.84401        -4.48694
   C        0.85916        -7.70799        -5.51734
   C        0.64500        -7.25448        -6.81353
   C        0.29412        -8.17239        -7.85231
   C       -0.36771        -7.93401        -9.01373
   C       -0.24084        -8.89209       -10.14442
   O        0.17217       -10.02907       -10.09571
   C       -0.66647        -8.13450       -11.33852
   C       -0.61190        -8.51875       -12.65653
   C       -1.04621        -7.60594       -13.62303
   C       -1.08576        -7.74955       -15.03946
   C       -1.56102        -6.64926       -15.66142
   S       -1.99106        -5.37149       -14.57650
   C       -1.52141        -6.33806       -13.21268
   C       -1.58954        -5.95210       -11.87901
   C       -1.15612        -6.86472       -10.93736
   C       -1.11711        -6.78722        -9.48175
   C       -1.85558        -5.92607        -8.71019
   C       -1.97990        -6.05290        -7.31321
   N       -2.13478        -6.12963        -6.17799
   C       -2.55340        -4.81636        -9.21807
   N       -3.08642        -3.86594        -9.58341
   C        0.85043        -5.86504        -7.06210
   N        0.81083        -5.40643        -8.32563
   C        0.91187        -4.12360        -8.55847
   C        0.87027        -3.66952        -9.97889
   C        1.04312        -3.21218        -7.47550
   C        1.03521        -1.73479        -7.68339
   N        1.20635        -3.65405        -6.25596
   C        1.14624        -4.97140        -5.99718
   S        2.78608        -0.93481        -2.55551
   C        3.07919        -0.76684        -0.84929
   C        3.64341         0.46735        -0.37074
   C        4.27096         0.62302         0.85774
   C        4.81083         1.83519         1.26150
   C        4.77535         2.98270         0.48220
   C        5.35947         4.20677         0.95759
   C        5.39367         5.44173         0.35761
   C        6.06439         6.39089         1.13542
   S        6.42720         8.08097         0.91248
   C        7.23894         8.10650         2.45147
   C        7.90820         9.10617         3.18271
   C        8.38525         8.61947         4.35769
   S        8.03837         6.94181         4.61111
   C        7.22160         6.86922         3.09270
   C        6.55221         5.89101         2.34312
   S        6.17438         4.22219         2.52366
   C        4.16234         2.86738        -0.80049
   N        4.11134         3.91514        -1.64394
   C        3.56846         3.77934        -2.82615
   C        3.54443         4.97448        -3.71999
   C        3.01964         2.53323        -3.23591
   C        2.38770         2.33595        -4.57146
   N        3.05772         1.51121        -2.42355
   C        3.61541         1.62186        -1.20981
   H        1.67778        -1.43494         3.07030
   H        0.70345        -1.40243         1.59805
   H        1.95817        -0.19008         1.84901
   H        2.40818        -3.19405         1.48943
   H        3.69628        -2.03318         1.74844
   H        1.97599        -3.90859        -0.68136
   H        1.91308        -2.79879        -4.45602
   H        1.68223        -5.20657        -2.59243
   H        1.30997        -7.24792        -3.49295
   H        0.72632        -8.75920        -5.30616
   H        0.66581        -9.18611        -7.73545
   H       -0.24354        -9.49420       -12.93439
   H       -0.76916        -8.64059       -15.55093
   H       -1.69333        -6.49224       -16.71427
   H       -1.95803        -4.97543       -11.61166
   H        0.88870        -4.53323       -10.63854
   H        1.71752        -3.02333       -10.20096
   H       -0.04350        -3.10285       -10.15878
   H        1.87330        -1.43241        -8.31017
   H        1.10701        -1.23303        -6.72271
   H        0.11498        -1.43338        -8.18144
   H        4.37874        -0.21514         1.52247
   H        5.28753         1.88369         2.23049
   H        4.94988         5.62871        -0.60075
   H        8.02609        10.12184         2.85372
   H        8.93238         9.14727         5.11309
   H        4.01935         5.81485        -3.22209
   H        2.51796         5.23898        -3.96991
   H        4.07249         4.76268        -4.64851
   H        3.10227         2.55106        -5.36453
   H        1.53862         3.00706        -4.69235
   H        2.05097         1.30706        -4.65630
*
