# ORCA input file
# SCF done       -224.105748314125          0.000766919220
! CAM-B3LYP def2-SVP def2/J RIJCOSX Grid4 TightSCF
%maxcore 5000
%tddft
    Mode sTDDFT
    Ethresh 5.0
    maxcore 5000
end

%pal
  nprocs 6
  end
* xyz 0 1
   C       -3.28179         4.54437         3.56741
   N       -2.36437         3.77900         2.77208
   C       -1.01518         4.01116         2.70100
   C       -0.26142         4.99615         3.31089
   C        1.12298         4.97405         3.13300
   C        1.93391         5.95815         3.80141
   C        3.19398         5.80615         4.27484
   C        4.03893         6.99351         4.57224
   O        3.67549         8.14185         4.66631
   C        5.41963         6.46541         4.66773
   C        6.60021         7.16499         4.81226
   C        7.78127         6.43295         4.85490
  Cl        9.28318         7.25688         5.03650
   C        7.77477         5.04548         4.75185
   C        6.58458         4.34894         4.61501
   C        5.39456         5.06105         4.57507
   C        4.00697         4.61968         4.47988
   C        3.54610         3.36685         4.78100
   C        4.38532         2.26384         5.03940
   N        5.02815         1.33300         5.23436
   C        2.18190         3.05398         4.96506
   N        1.10189         2.75283         5.21004
   C        1.71364         4.01867         2.28176
   C        0.95765         3.07564         1.62791
   C       -0.41556         3.04758         1.84748
   C       -1.47444         2.20994         1.38357
   C       -1.52530         1.10806         0.53569
   C       -2.74028         0.50648         0.30340
   C       -3.92207         0.98178         0.89534
   C       -5.19622         0.30253         0.62711
   C       -5.26078        -1.08909         0.56661
   C       -6.45512        -1.73346         0.32455
   C       -7.63036        -1.00820         0.13224
   C       -8.90748        -1.68307        -0.14481
   C       -9.31121        -2.77242         0.54728
   C      -10.48502        -3.57231         0.16458
   C      -10.70847        -3.94010        -1.16105
   C      -11.80681        -4.70680        -1.49934
   C      -12.69818        -5.11971        -0.52244
   C      -12.47707        -4.77207         0.79984
   C      -11.37551        -4.01133         1.14284
   C       -8.59490        -3.23895         1.74566
   C       -8.25016        -2.35289         2.76476
   C       -7.57435        -2.79570         3.88223
   C       -7.20383        -4.13311         4.00656
   C       -6.43343        -4.58774         5.17252
   C       -6.81829        -4.19740         6.46427
   C       -6.10966        -4.59505         7.57469
   C       -4.97602        -5.38301         7.39975
   C       -4.01552        -5.93752         8.29906
   C       -3.85359        -5.90910         9.68082
   C       -2.77089        -6.54920        10.23391
   C       -1.83960        -7.25244         9.44117
   C       -0.72551        -7.87656        10.09362
   C        0.08350        -8.88581         9.67951
   C        1.40340        -9.06657        10.34415
   O        1.76873        -8.57049        11.38364
   C        2.18054        -9.93411         9.42971
   C        3.50727       -10.30304         9.51287
   C        4.01456       -11.11152         8.50202
  Cl        5.66485       -11.60282         8.55675
   C        3.21490       -11.53011         7.44368
   C        1.88041       -11.16227         7.37227
   C        1.35401       -10.35986         8.37392
   C        0.00508        -9.84329         8.59313
   C       -1.13529       -10.36005         8.03787
   C       -1.14262       -11.33508         7.02028
   N       -1.20342       -12.09759         6.16411
   C       -2.44132       -10.02792         8.45692
   N       -3.52701        -9.84684         8.78107
   C       -1.98490        -7.27239         8.04968
   C       -3.06858        -6.62434         7.49329
   N       -3.42284        -6.50967         6.17315
   C       -2.71668        -7.13256         5.09003
   C       -4.57871        -5.77163         6.09426
   C       -5.31393        -5.38767         4.98390
   C       -7.56569        -5.02212         2.99707
   C       -8.26743        -4.58545         1.89199
   C       -9.71111        -1.08676        -1.22478
   C      -11.07639        -0.85910        -1.06388
   C      -11.81316        -0.27605        -2.07688
   C      -11.20062         0.08925        -3.26464
   C       -9.84196        -0.12246        -3.43002
   C       -9.10063        -0.69901        -2.41606
   C       -7.56297         0.38388         0.16829
   C       -6.36891         1.02712         0.42098
   C       -3.88610         2.08892         1.73436
   C       -2.66495         2.69693         1.98115
   H       -2.86059         4.71171         4.56011
   H       -4.21562         3.99736         3.67468
   H       -3.49087         5.51361         3.10424
   H       -0.70827         5.73595         3.95709
   H        1.51676         6.95612         3.89328
   H        6.59756         8.24068         4.89025
   H        8.71013         4.50893         4.78057
   H        6.59993         3.27410         4.53169
   H        2.77965         4.06380         2.11194
   H        1.42016         2.36266         0.96267
   H       -0.62500         0.73600         0.07067
   H       -2.79881        -0.33837        -0.36610
   H       -4.36584        -1.67098         0.73160
   H       -6.48121        -2.81180         0.27165
   H      -10.00948        -3.63060        -1.92407
   H      -11.96769        -4.98627        -2.53041
   H      -13.55847        -5.71518        -0.79007
   H      -13.16480        -5.09700         1.56704
   H      -11.20457        -3.73913         2.17506
   H       -8.52194        -1.31116         2.67586
   H       -7.30325        -2.09555         4.65902
   H       -7.70313        -3.58941         6.57899
   H       -6.42017        -4.30015         8.56537
   H       -4.56422        -5.38747        10.30316
   H       -2.63141        -6.54399        11.30439
   H       -0.43220        -7.43552        11.04227
   H        4.12081        -9.97205        10.33573
   H        3.64245       -12.14976         6.67113
   H        1.27957       -11.49355         6.54066
   H       -1.24022        -7.74542         7.42790
   H       -1.67031        -6.81704         5.08678
   H       -3.16947        -6.84268         4.14540
   H       -2.75588        -8.22224         5.17893
   H       -5.02141        -5.66869         3.98316
   H       -7.31097        -6.06782         3.09358
   H       -8.54943        -5.28595         1.11841
   H      -11.55476        -1.13229        -0.13472
   H      -12.87039        -0.10235        -1.93848
   H      -11.77910         0.54209        -4.05629
   H       -9.35783         0.16467        -4.35228
   H       -8.04032        -0.86530        -2.54641
   H       -8.46220         0.96154         0.00596
   H       -6.33775         2.10715         0.43391
   H       -4.79562         2.44132         2.19711
*
