# ORCA input file
# SCF done       -162.601182604565          0.000188402760
! CAM-B3LYP def2-SVP def2/J RIJCOSX Grid4 TightSCF
%maxcore 5000
%tddft
    Mode sTDDFT
    Ethresh 5.0
    maxcore 5000
end

%pal
  nprocs 6
  end
* xyz 0 1
   C       -5.60541         4.19394         3.34281
   O       -4.56572         3.63889         2.57875
   C       -3.28060         4.03639         2.84900
   C       -2.95662         5.00753         3.77612
   C       -1.63911         5.39439         4.01909
   C       -1.38068         6.43708         5.01224
   C       -0.36186         7.36168         4.89772
   C       -0.12505         8.36476         5.85221
   C       -0.89089         8.49917         6.97943
   C       -1.94161         7.58888         7.13382
   N       -2.85865         7.45392         8.10652
   N       -3.58408         6.43925         7.72169
   C       -4.69388         5.97901         8.49990
   N       -3.25921         5.87269         6.59086
   C       -2.19643         6.57396         6.15890
   C       -0.61306         4.75021         3.30484
   O        0.67832         5.10139         3.60100
   C        1.72727         4.35291         3.04487
   C       -0.94028         3.78035         2.37180
   C       -2.25850         3.40958         2.10769
   C       -2.61441         2.42224         1.11415
   C       -1.81414         1.92866         0.15802
   N       -2.18712         0.94147        -0.72545
   C       -1.65816         0.93371        -2.07294
   C       -2.00532        -0.42181        -2.71817
   C       -1.97959        -0.35511        -4.20762
   C       -2.56569         0.77669        -4.83283
   C       -2.44343         0.76199        -6.18293
   S       -1.61694        -0.63940        -6.73564
   C       -1.43338        -1.23267        -5.10349
   C       -0.78087        -2.51196        -4.89326
   C        0.32953        -2.87576        -5.65618
   C        0.95444        -4.08776        -5.46345
   F        1.99183        -4.38790        -6.27103
   C        0.53056        -5.00461        -4.49680
   C        1.22563        -6.24855        -4.23057
   S        0.31228        -7.69331        -3.91429
   C        1.75437        -8.60116        -3.70357
   C        2.86512        -7.84064        -3.85370
   C        2.57734        -6.48382        -4.15147
   C        3.61374        -5.45502        -4.29522
   C        4.69376        -5.67338        -5.16191
   O        4.69544        -6.86372        -5.82123
   C        5.67105        -7.08604        -6.80878
   C        5.66711        -4.69253        -5.31601
   C        5.56206        -3.50790        -4.61363
   C        4.50707        -3.27698        -3.75096
   C        3.52916        -4.24956        -3.58540
   O        2.46221        -4.12508        -2.74028
   C        2.24374        -2.89067        -2.10623
   C       -0.61499        -4.66736        -3.77704
   C       -1.24606        -3.45975        -3.97890
   F       -2.37511        -3.21509        -3.27651
   C       -3.16462         1.82512        -3.96206
   C       -2.12722         2.17961        -2.88963
   O       -1.05271         2.80054        -3.57041
   C       -0.24083         3.62779        -2.78029
   H       -6.51522         3.69776         3.00590
   H       -5.69975         5.27198         3.17308
   H       -5.46340         4.00770         4.41213
   H       -3.72613         5.50057         4.34422
   H        0.27912         7.32310         4.03242
   H        0.69361         9.04888         5.68048
   H       -0.71116         9.26153         7.71991
   H       -4.65661         6.47787         9.46541
   H       -4.62858         4.89861         8.62558
   H       -5.63243         6.21924         7.99692
   H        2.63781         4.74972         3.49265
   H        1.78145         4.47429         1.95688
   H        1.63965         3.28868         3.28761
   H       -0.15822         3.27445         1.83082
   H       -3.64170         2.08847         1.15262
   H       -0.78940         2.25241         0.04304
   H       -3.17248         0.71300        -0.67603
   H       -0.56660         1.00460        -1.99714
   H       -3.01389        -0.71015        -2.40450
   H       -1.31886        -1.17896        -2.34047
   H       -2.78572         1.48752        -6.89324
   H        0.70512        -2.20330        -6.41196
   H        1.68680        -9.64703        -3.47806
   H        3.86621        -8.21574        -3.74918
   H        5.43234        -8.05639        -7.24192
   H        6.67936        -7.12080        -6.38221
   H        5.63192        -6.32177        -7.59096
   H        6.50145        -4.83940        -5.98198
   H        6.31794        -2.74745        -4.74077
   H        4.45588        -2.34300        -3.21586
   H        2.12759        -2.08100        -2.83462
   H        3.05063        -2.64331        -1.40878
   H        1.31461        -3.00966        -1.55038
   H       -1.01275        -5.35530        -3.04733
   H       -4.06866         1.44673        -3.47825
   H       -3.41413         2.71739        -4.53506
   H       -2.56563         2.90099        -2.17812
   H        0.43494         4.13458        -3.46676
   H        0.35231         3.05921        -2.05383
   H       -0.83819         4.37116        -2.23778
*
