# ORCA input file
# SCF done       -111.953277648433          0.000768147971
! CAM-B3LYP def2-SVP def2/J RIJCOSX Grid4 TightSCF
%maxcore 5000
%tddft
    Mode sTDDFT
    Ethresh 5.0
    maxcore 5000
end

%pal
  nprocs 6
  end
* xyz 0 1
   C       -0.03133        -2.53501         1.27165
   C       -0.02260        -1.67419         0.00507
   C       -0.01611        -2.55395        -1.24762
   C        1.13916        -0.70760         0.00900
   C        2.52780        -0.79902         0.01751
   C        3.13950         0.43977         0.02147
   C        4.54227         0.73462         0.03102
   C        5.03659         2.04816        -0.02079
   N        6.31472         2.33550        -0.01047
   C        7.18060         1.31733         0.05217
   C        8.59873         1.64818         0.06441
   C        9.01388         2.96271        -0.01171
   C       10.36856         3.32864        -0.00373
   C       11.36596         2.39415         0.08151
   C       10.99443         1.04266         0.16222
   N       11.80932        -0.01036         0.25255
   S       10.91290        -1.34212         0.32029
   N        9.46107        -0.66566         0.23980
   C        9.60471         0.65384         0.15437
   N        6.82192         0.03690         0.10430
   C        5.54310        -0.24938         0.09509
   S        1.96544         1.74623         0.01457
   C        0.68617         0.60775         0.00823
   C       -0.73130         0.61350         0.00051
   S       -2.00601         1.75871        -0.00383
   C       -3.16204         0.45574        -0.01721
   C       -4.55860         0.77115        -0.02558
   N       -4.88857         2.06616         0.00156
   C       -6.16563         2.36753        -0.00591
   C       -7.17407         1.39735        -0.05904
   C       -8.58788         1.74405        -0.09045
   C       -9.04275         2.90504        -0.68114
   C      -10.40247         3.25783        -0.71373
   C      -11.36910         2.46728        -0.15470
   C      -10.95986         1.27256         0.45800
   N      -11.73351         0.36720         1.06009
   S      -10.80526        -0.81997         1.61103
   N       -9.38109        -0.26006         1.11909
   C       -9.56850         0.90011         0.48913
   C       -6.71179         0.07445        -0.07323
   N       -5.43612        -0.23748        -0.05354
   C       -2.57059        -0.79319        -0.01709
   C       -1.18410        -0.70637        -0.00562
   H        0.85066        -3.17031         1.29902
   H       -0.91840        -3.16301         1.28895
   H       -0.03415        -1.90305         2.15678
   H        0.86538        -3.19056        -1.25403
   H       -0.00730        -1.93616        -2.14264
   H       -0.90346        -3.18160        -1.26600
   H        3.07644        -1.72312         0.01753
   H        4.35775         2.89216        -0.07326
   H        8.25445         3.72591        -0.07981
   H       10.62187         4.37645        -0.06665
   H       12.41032         2.66158         0.08880
   H        5.30099        -1.30333         0.14249
   H       -6.39794         3.42362         0.05606
   H       -8.33250         3.56433        -1.15733
   H      -10.68141         4.18195        -1.19767
   H      -12.41405         2.72957        -0.17292
   H       -7.40417        -0.75562        -0.10676
   H       -3.15384        -1.69510        -0.02409
*
