# ORCA input file
# SCF done        -68.146264151857          0.000545749747
! CAM-B3LYP def2-SVP def2/J RIJCOSX Grid4 TightSCF
%maxcore 5000
%tddft
    Mode sTDDFT
    Ethresh 5.0
    maxcore 5000
end

%pal
  nprocs 6
  end
* xyz 0 1
   C        3.04849         0.65778         0.52958
   C        1.60055         0.41252         0.26115
   C        0.70205         1.46322         0.02743
   C       -0.59512         1.06722        -0.19663
   C       -1.72778         1.88035        -0.46702
   C       -3.03071         1.48998        -0.67502
   C       -3.89566         2.55825        -0.92269
   C       -3.27622         3.78564        -0.91171
   C       -3.85574         5.06892        -1.13143
   C       -3.21307         6.28092        -1.14374
   C       -4.03864         7.39568        -1.39153
   C       -5.35189         7.10388        -1.58156
  Se       -5.69874         5.28638        -1.45980
   S       -1.57368         3.61313        -0.58173
   S       -0.72387        -0.66412        -0.11733
   C        0.98290        -0.82730         0.21469
   C        1.52211        -2.13485         0.38919
   C        2.82150        -2.54390         0.59869
   C        2.95656        -3.92925         0.71812
   C        1.77244        -4.61720         0.60338
   C        1.56328        -6.02487         0.67544
   C        0.37714        -6.70060         0.54401
   C        0.46846        -8.10228         0.66180
   C        1.72072        -8.57754         0.88801
  Se        2.98553        -7.22471         0.98162
   S        0.45201        -3.51461         0.34069
   H        3.23967         1.72763         0.55519
   H        3.66630         0.21632        -0.25189
   H        3.34184         0.22992         1.48739
   H        0.99199         2.49987         0.02237
   H       -3.33447         0.45849        -0.64599
   H       -4.95231         2.45120        -1.10938
   H       -2.15193         6.36217        -0.97611
   H       -3.65416         8.40114        -1.42806
   H       -6.14369         7.80211        -1.78322
   H        3.65748        -1.87539         0.65931
   H        3.89733        -4.43031         0.88346
   H       -0.55221        -6.18635         0.36313
   H       -0.39151        -8.74528         0.57684
   H        2.00747        -9.60644         1.00703
*
