# ORCA input file
# SCF done       -202.803448146896          0.000492418860
! CAM-B3LYP def2-SVP def2/J RIJCOSX Grid4 TightSCF
%maxcore 5000
%tddft
    Mode sTDDFT
    Ethresh 5.0
    maxcore 5000
end

%pal
  nprocs 6
  end
* xyz 0 1
   C        6.33877         1.32356        -9.30963
   O        6.24052         1.92575        -8.04089
   C        6.26006         3.28002        -7.96196
   C        6.37315         4.13283        -9.04765
   C        6.37132         5.51762        -8.85818
   O        6.48571         6.25245        -9.99728
   C        6.49169         7.65626        -9.89553
   C        6.25965         6.04590        -7.58288
   C        6.16143         5.18499        -6.48651
   C        6.06725         5.74902        -5.14478
   C        5.29763         6.87503        -4.81362
   C        5.32746         7.20344        -3.47569
   C        4.51345         8.14164        -2.78619
   S        3.17215         8.89169        -3.60586
   C        2.55124         9.51486        -2.10547
   C        1.30169        10.19651        -2.03340
   S        0.72295        11.17039        -3.34107
   C       -0.70325        11.61608        -2.43904
   C       -1.75020        12.40368        -2.97831
   C       -1.72694        13.26033        -4.03087
   C       -3.00066        13.60464        -4.73818
   O       -4.12384        13.41238        -4.33558
   C       -2.56252        14.16544        -6.02480
   C       -3.14575        14.63032        -7.21577
   C       -2.19402        15.07658        -8.08417
   S       -0.58134        14.95843        -7.47628
   C       -1.17705        14.27275        -6.02499
   C       -0.62226        13.85812        -4.76457
   C        0.61171        14.21896        -4.28703
   C        0.99574        14.09062        -2.93824
   N        1.31126        14.05930        -1.83491
   C        1.55395        14.85993        -5.11558
   N        2.32722        15.36885        -5.79366
   C       -0.70804        10.99073        -1.20788
   C        0.41601        10.19612        -0.96167
   C        0.60313         9.38610         0.24896
   C        0.89497         8.03128         0.12661
   C        1.12699         7.27403         1.26840
   O        1.47154         5.95935         1.26871
   C        1.60103         5.28756         0.03700
   C        1.03105         7.87475         2.52027
   C        0.70408         9.22043         2.64255
   O        0.62806         9.69575         3.91297
   C        0.29398        11.04973         4.10789
   C        0.49209         9.98371         1.49711
   C        3.38420         9.19685        -1.05710
   C        4.49426         8.42780        -1.42769
   C        5.50184         7.95946        -0.46803
   C        5.09905         7.21254         0.63753
   C        6.05456         6.74981         1.53243
   O        5.79382         6.02455         2.64384
   C        4.45397         5.68959         2.94290
   C        7.40682         7.03573         1.31870
   C        7.80069         7.79926         0.23314
   O        9.08547         8.13914        -0.05064
   C       10.10349         7.69600         0.81398
   C        6.83837         8.26797        -0.66292
   S        6.36887         6.13067        -2.59627
   C        6.67870         5.18541        -4.02923
   C        7.54436         4.06714        -3.94817
   C        7.75130         3.31267        -2.83466
   C        9.00170         2.51432        -2.66004
   O        9.80446         2.22504        -3.51607
   C        9.05005         2.22461        -1.21597
   C        9.92497         1.62266        -0.29581
   C        9.40106         1.64358         0.96341
   S        7.83981         2.37787         1.06066
   C        7.88141         2.68488        -0.62290
   C        6.98610         3.24256        -1.59795
   C        5.63750         3.41779        -1.41583
   C        4.71825         3.71122        -2.44253
   N        3.91368         3.90322        -3.23902
   C        5.02156         3.25456        -0.16218
   N        4.47509         3.14793         0.84232
   C        6.15566         3.81263        -6.67483
   H        7.28460         1.57374        -9.80012
   H        5.50502         1.61381        -9.95651
   H        6.29914         0.25062        -9.12932
   H        6.45834         3.77329       -10.05928
   H        7.33825         8.01253        -9.30005
   H        5.55870         8.03186        -9.46361
   H        6.58961         8.02455       -10.91540
   H        6.27456         7.10952        -7.41149
   H        4.69128         7.41044        -5.52287
   H       -2.72954        12.23666        -2.53950
   H       -4.20115        14.63704        -7.41537
   H       -2.34308        15.48640        -9.06406
   H       -1.51203        11.10913        -0.50329
   H        0.94214         7.59112        -0.85589
   H        1.92890         4.27962         0.28631
   H        2.35165         5.75693        -0.60839
   H        0.64740         5.23849        -0.49678
   H        1.20443         7.28729         3.40639
   H        0.28285        11.19659         5.18658
   H       -0.69554        11.28199         3.70176
   H        1.03721        11.71705         3.66028
   H        0.26899        11.03665         1.55196
   H        3.21005         9.52433        -0.04895
   H        4.05360         6.99352         0.77550
   H        4.49270         5.16946         3.89808
   H        4.03319         5.02153         2.18717
   H        3.82856         6.58133         3.03803
   H        8.10960         6.64870         2.03758
   H       11.03245         8.08246         0.39745
   H       10.15047         6.60265         0.85103
   H        9.96900         8.08847         1.82686
   H        7.15548         8.87065        -1.49859
   H        8.15665         3.84231        -4.81492
   H       10.87870         1.19805        -0.54890
   H        9.84212         1.25613         1.86105
   H        6.02764         3.13738        -5.84495
*
