# ORCA input file
# SCF done       -263.467781000741          0.000888153480
! CAM-B3LYP def2-SVP def2/J RIJCOSX Grid4 TightSCF
%maxcore 5000
%tddft
    Mode sTDDFT
    Ethresh 5.0
    maxcore 5000
end

%pal
  nprocs 6
  end
* xyz 0 1
   C       19.41581       -18.42879         2.18855
   C       18.75060       -18.38045         1.02662
   C       19.23501       -18.72430        -0.27970
   C       18.32737       -18.57300        -1.26905
   C       17.05689       -18.10279        -0.83109
   C       15.94595       -17.86250        -1.60736
   C       15.80605       -18.02113        -3.00579
   C       14.56824       -17.70556        -3.47256
   C       13.64883       -17.27840        -2.48006
   C       12.33626       -16.94257        -2.73421
   C       11.32976       -16.52857        -1.85305
   C       11.44354       -16.28405        -0.50956
   C       10.37436       -15.90358         0.31595
   C       10.44609       -15.61903         1.68261
   C        9.21983       -15.29538         2.22400
   C        8.18158       -15.32934         1.27926
   S        8.73044       -15.75576        -0.29032
   C        6.97292       -15.00752         1.91378
   S        5.31516       -14.86472         1.51299
   C        4.93813       -14.44660         3.18136
   C        3.59478       -14.21211         3.55684
   C        3.19651       -13.49699         4.66848
   C        1.85034       -13.63974         5.19161
   C        1.03654       -12.58886         5.54075
   C       -0.28511       -12.74326         6.07579
   C       -0.76310       -13.71181         6.89785
   C       -2.21352       -14.09378         6.82284
   O       -3.12425       -13.41456         6.42491
   C       -2.22281       -15.49285         7.28190
   C       -3.11530       -16.51492         7.34873
   S       -2.39538       -17.91491         8.04801
   C       -0.87973       -17.12112         8.26964
   C       -0.93285       -15.84326         7.80628
   C       -0.07128       -14.68134         7.72923
   C        1.02344       -14.43292         8.50894
   C        1.59049       -15.43588         9.31920
   N        2.04656       -16.27464         9.95422
   C        1.53539       -13.12778         8.65383
   N        1.87273       -12.04935         8.84552
   C        1.33012       -11.22359         5.01199
   C        0.69511       -10.85684         3.82291
   F       -0.12808       -11.72447         3.23219
   C        0.89378        -9.61739         3.22682
   F        0.27364        -9.31057         2.09098
   C        1.74691        -8.69576         3.82784
   F        1.95552        -7.50767         3.26829
   C        2.37112        -9.02874         5.02369
   F        3.19257        -8.16220         5.61753
   C        2.14830       -10.27375         5.60823
   F        2.76067       -10.52852         6.76607
   C        1.34769       -15.03618         5.22920
   C        0.14566       -15.40260         4.61619
   F       -0.55193       -14.49283         3.92734
   C       -0.34249       -16.70116         4.65742
   F       -1.50288       -16.99678         4.07053
   C        0.38339       -17.69570         5.30849
   F       -0.09215       -18.93595         5.37855
   C        1.61009       -17.37500         5.87775
   F        2.32967       -18.31620         6.48117
   C        2.08390       -16.06652         5.81925
   F        3.28112       -15.81896         6.34339
   C        4.15172       -12.59363         5.33516
   C        4.80127       -11.59567         4.60328
   F        4.51353       -11.44216         3.30431
   C        5.73038       -10.74344         5.18219
   F        6.33107        -9.80803         4.44470
   C        6.03941       -10.87349         6.53437
   F        6.94707       -10.07594         7.09145
   C        5.40604       -11.85556         7.28943
   F        5.71378       -12.00727         8.57404
   C        4.47227       -12.69532         6.68993
   F        3.90774       -13.64449         7.43224
   C        2.55889       -14.70509         2.61241
   C        1.84591       -13.78920         1.84164
   F        2.10758       -12.48902         1.97515
   C        0.89261       -14.19734         0.91459
   F        0.24036       -13.30334         0.18118
   C        0.63725       -15.55654         0.74739
   F       -0.27100       -15.96424        -0.13255
   C        1.34695       -16.48980         1.49886
   F        1.10567       -17.79304         1.35272
   C        2.30393       -16.05668         2.40843
   F        2.96810       -16.96590         3.13545
   C        6.08205       -14.43966         3.98129
   C        7.21998       -14.75941         3.27490
   C        8.68743       -14.92658         3.58915
   C        8.91374       -16.05818         4.59607
   C        9.29861       -13.61750         4.09721
   S       14.44039       -17.28651        -0.91776
   S       17.06365       -17.85502         0.90000
   H       20.43963       -18.75619         2.22124
   H       18.95481       -18.14642         3.11721
   H       20.24354       -19.07095        -0.41646
   H       18.51882       -18.78463        -2.30593
   H       16.61562       -18.36402        -3.62428
   H       14.27827       -17.76804        -4.50673
   H       12.04536       -17.03230        -3.77366
   H       10.35148       -16.38336        -2.29598
   H       12.40058       -16.37240        -0.01685
   H       11.37452       -15.66103         2.22260
   H       -1.03314       -12.05956         5.68722
   H       -4.13933       -16.53468         7.03401
   H       -0.06010       -17.64971         8.71474
   H        6.04797       -14.26420         5.04011
   H        8.47095       -16.98274         4.23293
   H        8.45826       -15.80595         5.55003
   H        9.97874       -16.21607         4.74530
   H        9.12047       -12.81337         3.38686
   H       10.37100       -13.73358         4.23031
   H        8.85491       -13.34533         5.05169
*
