# ORCA input file
# SCF done       -217.775035101021          0.000480669236
! CAM-B3LYP def2-SVP def2/J RIJCOSX Grid4 TightSCF
%maxcore 5000
%tddft
    Mode sTDDFT
    Ethresh 5.0
    maxcore 5000
end

%pal
  nprocs 6
  end
* xyz 0 1
   C        4.54306         1.26238        -0.54590
   S        5.25429        -0.35895        -0.10917
   C        4.27863        -0.73698         1.32366
   C        4.41268        -0.02481         2.52468
   C        5.32219         1.01567         2.80512
   C        5.22561         1.48822         4.08460
   C        5.99850         2.54256         4.66488
   N        6.87125         3.18240         3.91388
   N        7.62224         4.16542         4.36701
   C        7.57004         4.59729         5.59175
   C        6.67018         4.00774         6.51365
   N        6.35864         4.19361         7.78290
   O        5.41488         3.30196         8.06308
   N        5.08776         2.53110         7.02850
   C        5.84624         2.93201         6.03025
   S        4.00634         0.66332         5.01439
   C        3.60180        -0.35193         3.65080
   C        2.66819        -1.37787         3.61058
   S        1.63130        -1.90674         4.93416
   C        1.28117        -0.41499         5.90905
   C        2.56874        -2.11614         2.41447
   C        1.70595        -3.19703         2.12935
   C        1.84794        -3.67942         0.85637
   C        1.14546        -4.71721         0.26640
   C        0.52806        -5.61403        -0.27207
   C       -0.18259        -6.63024        -0.88587
   C       -1.30509        -7.28137        -0.40390
   C       -1.79425        -8.24402        -1.27781
   C       -1.05115        -8.35096        -2.44196
   C       -1.27851        -9.20447        -3.49972
   C       -1.47009        -9.95334        -4.44153
   C       -1.72853       -10.80884        -5.49276
   C       -2.83958       -11.59337        -5.54317
   C       -3.14120       -12.46744        -6.60591
   S       -2.07812       -12.65893        -7.97520
   C       -3.14379       -13.81201        -8.72788
   C       -2.87913       -14.35741       -10.01132
   C       -1.67169       -14.63297       -10.56768
   C       -1.54451       -14.78496       -12.04523
   O       -2.43468       -14.88259       -12.85055
   C       -0.08580       -14.71356       -12.30744
   C        0.57283       -14.68657       -13.51565
   C        1.96976       -14.58042       -13.51206
   C        2.61103       -14.56368       -14.77376
   N        3.09133       -14.57335       -15.81563
   C        2.67631       -14.47679       -12.30082
   C        4.16628       -14.26716       -12.19710
   O        4.63414       -13.71571       -11.24116
   O        4.94395       -14.72613       -13.17724
   C        1.98956       -14.50556       -11.08712
   C        0.61281       -14.64316       -11.08667
   C       -0.34696       -14.75077        -9.98924
   C       -0.04989       -15.16386        -8.71970
   C       -1.02870       -15.52085        -7.76649
   N       -1.79037       -15.85689        -6.97700
   C        1.26341       -15.38274        -8.24861
   N        2.30682       -15.57393        -7.81352
   C       -4.27313       -14.02199        -7.94816
   C       -4.27418       -13.27620        -6.74384
   C       -5.35225       -13.34296        -5.76396
   O       -5.39543       -12.70777        -4.72915
   C       -6.44082       -14.27034        -6.15796
   C       -7.57666       -14.50645        -5.42053
   C       -7.96059       -13.90898        -4.10114
   F       -7.09268       -14.19201        -3.12809
   F       -8.09658       -12.58096        -4.15562
   F       -9.15089       -14.39075        -3.69633
   S       -8.64297       -15.62781        -6.16896
   C       -7.56351       -15.79454        -7.49300
   C       -7.92569       -16.70597        -8.62624
   F       -9.13927       -17.25071        -8.42330
   F       -7.99429       -16.06389        -9.79588
   F       -7.07545       -17.72405        -8.76637
   C       -6.43348       -15.02201        -7.36414
   C       -5.31662       -14.97423        -8.33195
   O       -5.27766       -15.65804        -9.33189
   S        0.28600        -7.22730        -2.45053
   S        3.06970        -2.81421        -0.06388
   C        3.37989        -1.78306         1.29842
   H        5.11284         1.61906        -1.39734
   H        4.63733         1.95298         0.28522
   H        3.50126         1.12929        -0.82224
   H        6.05121         1.39447         2.11239
   H        8.22780         5.40723         5.86312
   H        0.36834        -0.64133         6.45239
   H        1.11781         0.42437         5.24218
   H        2.08574        -0.20998         6.60793
   H        1.00885        -3.60343         2.83932
   H       -1.74097        -7.04697         0.55057
   H       -2.65828        -8.85576        -1.08988
   H       -1.00452       -10.82802        -6.30043
   H       -3.55895       -11.56186        -4.73672
   H       -3.74707       -14.53272       -10.64170
   H        0.02701       -14.74508       -14.44525
   H        4.48105       -15.11385       -13.93456
   H        2.56194       -14.40173       -10.17822
*
