# ORCA input file
# SCF done       -147.261515520791          0.000454041837
! CAM-B3LYP def2-SVP def2/J RIJCOSX Grid4 TightSCF
%maxcore 5000
%tddft
    Mode sTDDFT
    Ethresh 5.0
    maxcore 5000
end

%pal
  nprocs 6
  end
* xyz 0 1
   C        1.54034        -1.35792        -0.40041
   O        2.78720        -1.74709        -0.93342
   C        3.65755        -0.82207        -1.34359
   C        3.63074         0.58310        -1.33532
   C        2.66491         1.55363        -0.97502
   C        2.87242         2.87772        -1.22617
   C        1.95197         3.91978        -0.96326
   C        2.29808         5.25757        -1.30328
   N        3.52235         5.47483        -1.82881
   C        3.86545         6.69556        -2.12884
   C        2.99579         7.78065        -1.89923
   N        1.79944         7.60280        -1.41576
   C        1.39709         6.34972        -1.11350
   C        0.06282         6.17334        -0.63472
   C       -0.74568         7.33843        -0.56441
   C       -2.08859         7.53214        -0.42564
   C       -3.18255         6.60972        -0.37618
   C       -4.40034         7.17611        -0.30591
   C       -4.41354         8.62721        -0.28348
   O       -5.34221         9.38355        -0.22054
   S       -2.69539         9.18534        -0.37372
   C       -0.26451         4.85220        -0.25047
   N       -1.40138         4.44490         0.31735
   S       -1.32102         2.87618         0.63087
   N        0.15575         2.60772         0.06232
   C        0.66814         3.75253        -0.39552
   O        4.79655         1.03201        -1.86470
   C        5.56444         0.00118        -2.21765
   C        6.83028         0.28049        -2.82750
   C        7.03294         1.46930        -3.57014
   N        6.01195         2.34463        -3.68397
   C        6.20642         3.44950        -4.34343
   C        7.45550         3.74367        -4.92978
   N        8.44391         2.89618        -4.88603
   C        8.27797         1.73035        -4.22662
   C        9.36156         0.79969        -4.22971
   C       10.50785         1.15876        -4.99084
   C       11.57122         0.43699        -5.44291
   C       11.86336        -0.96521        -5.36454
   C       12.98803        -1.34478        -5.99380
   C       13.72992        -0.27824        -6.64544
   O       14.75371        -0.32701        -7.26588
   S       12.81870         1.26152        -6.37057
   C        9.17888        -0.33817        -3.41313
   N       10.08295        -1.27292        -3.10658
   S        9.45797        -2.29915        -2.04514
   N        8.01294        -1.63714        -1.90537
   C        7.93886        -0.57067        -2.70310
   C        4.89744        -1.18731        -1.92625
   C        5.25533        -2.58981        -2.27643
   F        4.16744        -3.31359        -2.58776
   F        6.05280        -2.67023        -3.35771
   F        5.87155        -3.26221        -1.29172
   H        1.02725        -2.29011        -0.16995
   H        0.95657        -0.79041        -1.12925
   H        1.66471        -0.77302         0.51445
   H        1.74295         1.24324        -0.51481
   H        3.79853         3.18688        -1.68900
   H        4.85239         6.83575        -2.54872
   H        3.28738         8.80027        -2.11116
   H       -0.15989         8.24127        -0.69668
   H       -2.99980         5.55119        -0.39319
   H       -5.33676         6.64757        -0.26961
   H        5.36614         4.12664        -4.41256
   H        7.63984         4.67636        -5.44528
   H       10.48127         2.19771        -5.29926
   H       11.20772        -1.62539        -4.82733
   H       13.36658        -2.35022        -6.05177
*
