# ORCA input file
# SCF done       -136.314402844561          0.000314515489
! CAM-B3LYP def2-SVP def2/J RIJCOSX Grid4 TightSCF
%maxcore 5000
%tddft
    Mode sTDDFT
    Ethresh 5.0
    maxcore 5000
end

%pal
  nprocs 6
  end
* xyz 0 1
   C       -0.04501        -2.09920         2.15049
   C        1.36164        -1.77665         1.83914
   N        2.24924        -2.62539         1.50701
   C        3.45819        -2.04406         1.25707
   C        4.67974        -2.55863         0.90256
   C        5.02933        -3.92789         0.60364
   C        6.17266        -4.55843         1.04010
   C        7.13485        -4.08027         1.98121
   C        6.93756        -3.19796         3.02162
   C        8.09320        -2.92906         3.75896
   C        9.18613        -3.64317         3.26403
   S        8.79101        -4.63254         1.91849
   C       10.41678        -3.42432         3.93958
   S       11.97403        -4.11029         3.70306
   C       12.60668        -3.16313         5.02575
   C       13.99328        -3.25832         5.42330
   C       14.40731        -3.40679         6.72762
   C       13.63948        -3.65966         7.90399
   S       12.00963        -4.30874         7.86522
   C       11.90713        -4.40813         9.57833
   C       13.05458        -3.97070        10.16921
   N       13.44228        -3.84784        11.47168
   C       14.62057        -3.38396        11.58079
   C       15.32410        -3.13199        12.85397
   S       15.46333        -3.01665        10.03533
   C       14.04165        -3.55712         9.21111
   S       16.15619        -3.36401         6.88541
   C       16.34058        -3.17812         5.17116
   C       17.54047        -3.06595         4.48194
   C       17.50458        -2.91421         3.11469
   C       16.27186        -2.86532         2.44195
   C       16.25784        -2.69638         1.03818
   N       16.25030        -2.55751        -0.09976
   C       15.07184        -2.97322         3.13013
   C       15.09498        -3.14148         4.51255
   C       11.63779        -2.36546         5.58236
   C       10.37952        -2.49978         4.98208
  Si        8.63647        -1.84953         5.18875
   C        8.45198        -0.02361         4.81444
   C        7.88753        -2.33510         6.83550
   S        6.34910        -6.16653         0.36902
   C        4.85329        -6.01024        -0.49585
   C        4.27893        -6.96356        -1.32593
   C        3.08267        -6.67064        -1.94009
   C        2.46890        -5.42427        -1.72967
   C        1.23949        -5.13824        -2.36579
   N        0.24058        -4.90691        -2.87916
   C        3.04604        -4.46732        -0.90713
   C        4.24886        -4.75705        -0.26939
   S        5.84089        -1.26242         0.75351
   C        4.68747        -0.05350         1.19495
   C        3.47802        -0.61541         1.43030
   S        1.90199        -0.06465         1.90755
   H       -0.18151        -3.17717         2.13460
   H       -0.70404        -1.64208         1.41271
   H       -0.31533        -1.70690         3.12981
   H        5.97285        -2.78316         3.25283
   H       11.01526        -4.77543        10.04215
   H       14.68683        -3.42298        13.68448
   H       15.57551        -2.07552        12.94001
   H       16.25254        -3.70030        12.88823
   H       18.47783        -3.09839         5.01447
   H       18.41927        -2.82739         2.54842
   H       14.13495        -2.92841         2.59628
   H       11.84434        -1.68961         6.39359
   H        8.88270         0.24269         3.85107
   H        8.93913         0.59462         5.56563
   H        7.40561         0.27404         4.78906
   H        8.00649        -3.39711         7.04153
   H        6.82213        -2.11785         6.87398
   H        8.35100        -1.79641         7.65956
   H        4.76643        -7.91319        -1.48137
   H        2.60791        -7.39138        -2.58828
   H        2.55997        -3.51759        -0.75449
   H        4.98378         0.97386         1.24200
*
