# ORCA input file
# SCF done       -184.582783634565          0.000963532161
! CAM-B3LYP def2-SVP def2/J RIJCOSX Grid4 TightSCF
%maxcore 5000
%tddft
    Mode sTDDFT
    Ethresh 5.0
    maxcore 5000
end

%pal
  nprocs 6
  end
* xyz 0 1
   N       10.59826        -0.58075        -0.42292
   C       10.68602        -0.44894         0.71347
   C       10.74363        -0.29908         2.11412
   C        9.86127        -1.15810         2.80569
   N        9.18956        -1.91659         3.34359
   C       11.63765         0.51537         2.75376
   C       11.79994         0.63827         4.18814
   C       10.90647         0.56752         5.20952
   C        9.49037         0.63192         5.16412
   C        8.64281         0.26913         6.18023
   C        7.28014         0.50205         5.89906
   C        6.16944         0.23673         6.70387
   C        4.92905         0.58085         6.22061
   S        3.40869         0.36763         7.04106
   C        2.54317         1.06907         5.68972
   C        1.12213         1.20690         5.74501
   C        0.28203         1.61734         4.74874
   C       -1.07918         1.65680         5.13793
   C       -2.18910         2.02204         4.37602
   C       -3.42520         1.98858         4.98130
   S       -4.94681         2.39349         4.23884
   C       -5.80113         2.06253         5.73367
   C       -7.22013         2.21881         5.79851
   C       -8.01181         2.19239         6.91271
   C       -9.38705         2.37131         6.63284
   C      -10.45701         2.40147         7.52661
   C      -11.72237         2.57820         7.01288
   S      -13.20230         2.63791         7.91789
   C      -14.13504         2.89891         6.45106
   C      -15.54315         2.97543         6.56031
   C      -16.47351         3.41519         5.66770
   C      -17.88855         2.99215         5.85701
   O      -18.36861         2.47377         6.83597
   C      -18.55491         3.29419         4.57092
   C      -19.84034         2.99327         4.17173
   C      -20.23174         3.35270         2.88821
  Br      -21.98570         2.95272         2.30955
   C      -19.33694         3.99804         2.03189
  Br      -19.87028         4.45916         0.27817
   C      -18.04502         4.31068         2.44033
   C      -17.65311         3.95995         3.72079
   C      -16.39782         4.17794         4.44055
   C      -15.46463         5.12655         4.11591
   C      -14.40432         5.50423         4.96498
   N      -13.54740         5.86706         5.63601
   C      -15.50307         5.89244         2.93185
   N      -15.48008         6.52013         1.97172
   C      -13.33275         2.90842         5.33462
   C      -11.96438         2.72920         5.61830
   C      -10.89060         2.70431         4.72304
   C       -9.62891         2.53206         5.23887
   S       -8.14398         2.47169         4.33168
   C       -4.95989         1.66263         6.73315
   C       -3.60097         1.60533         6.33849
   C       -2.49215         1.23200         7.09797
   C       -1.25683         1.26056         6.49110
   S        0.26295         0.84226         7.22961
   C        3.38027         1.43878         4.67336
   C        4.74438         1.18015         4.94335
   C        5.85385         1.44387         4.13826
   C        7.09520         1.10461         4.62397
   S        8.61493         1.34371         3.81231
   C       13.20712         1.03806         4.45812
   O       13.76444         1.07768         5.52820
   C       13.74413         1.43709         3.13658
   C       14.96262         2.00947         2.83555
   C       15.23032         2.32895         1.51039
  Br       16.88952         3.11771         1.06689
   C       14.28340         2.07434         0.51568
  Br       14.65080         2.53437        -1.28001
   C       13.06062         1.48585         0.81797
   C       12.79141         1.16402         2.13672
   H       11.33942         0.54962         6.20528
   H        8.99025        -0.17982         7.09388
   H        6.29031        -0.22110         7.67245
   H        0.61524         1.87969         3.76128
   H       -2.07565         2.32067         3.34615
   H       -7.62969         2.06040         7.90830
   H      -10.29224         2.28712         8.58589
   H      -15.96282         2.55165         7.46847
   H      -20.52223         2.49158         4.84062
   H      -17.37943         4.80627         1.75192
   H      -13.71271         2.98923         4.33138
   H      -11.05550         2.82572         3.66445
   H       -5.29336         1.40302         7.72128
   H       -2.60571         0.93215         8.12748
   H        3.04040         1.89285         3.76070
   H        5.73360         1.89777         3.16766
   H       15.68758         2.20432         3.61055
   H       12.34832         1.30438         0.02894
*
