# ORCA input file
# SCF done       -174.475689636834          0.000477418229
! CAM-B3LYP def2-SVP def2/J RIJCOSX Grid4 TightSCF
%maxcore 5000
%tddft
    Mode sTDDFT
    Ethresh 5.0
    maxcore 5000
end

%pal
  nprocs 6
  end
* xyz 0 1
   C        3.86623        -4.14650         8.98940
   O        3.10017        -4.19028         7.80882
   C        3.41821        -5.10953         6.85859
   C        4.45475        -5.99779         6.98584
   C        4.65946        -6.93928         5.96847
   N        5.60358        -7.87705         5.93153
   S        5.42587        -8.73326         4.58268
   N        4.14425        -7.95823         3.98223
   C        3.79849        -6.97975         4.81956
   C        2.72867        -6.05819         4.68697
   C        1.85553        -6.09764         3.52106
   C        0.53481        -5.84301         3.56639
   C       -0.28743        -5.87002         2.39869
   C        0.13942        -6.30444         1.19009
   C       -0.77014        -6.40806         0.07579
   C       -0.55834        -6.13792        -1.24246
   C       -1.82563        -6.19664        -1.93599
   C       -2.00510        -5.97663        -3.30655
   N       -2.17943        -5.77872        -4.42466
   C       -2.82413        -6.47727        -1.03778
   C       -2.21852        -6.68336         0.24149
   C       -2.84416        -7.23875         1.33192
   C       -2.24477        -8.05807         2.34051
   C       -3.25407        -8.59046         3.10560
   C       -3.09657        -9.49649         4.16214
   N       -2.97567       -10.23551         5.03275
   C       -4.52338        -8.06949         2.66122
   C       -4.30672        -7.24695         1.59103
   C       -5.23064        -6.39928         0.91528
   C       -6.57678        -6.49982         1.02920
   C       -7.56862        -5.70570         0.37081
   C       -7.36250        -4.82376        -0.70441
   O       -6.09658        -4.72820        -1.17279
   C       -5.82687        -4.34171        -2.51024
   C       -8.43502        -4.05726        -1.24484
   O       -8.11094        -3.07981        -2.16102
   C       -8.38754        -1.75223        -1.76024
   C       -9.76200        -4.24902        -0.86709
   C      -10.88819        -3.62312        -1.51026
   S      -12.30105        -3.23252        -0.57012
   C      -13.13150        -2.68291        -1.96341
   C      -12.39018        -2.81204        -3.10100
   C      -11.08888        -3.33035        -2.84745
   S       -9.91528        -3.63063        -4.11339
   C      -10.81441        -2.85731        -5.50444
   C      -12.30333        -3.13796        -5.41269
   O      -12.89792        -2.47158        -4.32052
   C       -9.99163        -5.12960         0.21936
   N      -11.16195        -5.41823         0.77962
   S      -10.91915        -6.47063         1.97307
   N       -9.32100        -6.61108         1.83074
   C       -8.90606        -5.83503         0.83181
   C        1.58043        -6.77503         1.04555
   N        2.07685        -6.44335        -0.26748
   C        2.88145        -5.48752        -0.40496
   F        3.30532        -5.17303        -1.62775
   C        3.39153        -4.70510         0.73085
   F        4.02941        -3.56321         0.47575
   N        3.22532        -5.07192         1.92044
   C        2.52604        -6.31089         2.18082
   C        2.56281        -5.11914         5.70058
   O        1.54189        -4.23521         5.56152
   C        1.71972        -2.87859         5.92922
   H        4.91128        -3.89980         8.78005
   H        3.81586        -5.09400         9.53364
   H        3.42265        -3.35753         9.59453
   H        5.10673        -6.01514         7.84154
   H        0.05415        -5.63436         4.50771
   H       -1.30675        -5.53152         2.50932
   H        0.36878        -5.89206        -1.72014
   H       -3.85129        -6.66649        -1.28071
   H       -1.20466        -8.30977         2.40752
   H       -5.45946        -8.28598         3.13912
   H       -4.81141        -5.62020         0.30145
   H       -6.99727        -7.24622         1.68960
   H       -5.72368        -3.25893        -2.59815
   H       -6.60290        -4.68512        -3.19426
   H       -4.87589        -4.81257        -2.76573
   H       -9.44533        -1.59546        -1.53497
   H       -8.09920        -1.12698        -2.60331
   H       -7.79257        -1.48192        -0.88128
   H      -14.12890        -2.30088        -1.89325
   H      -10.38742        -3.28478        -6.40883
   H      -10.62719        -1.78334        -5.47777
   H      -12.47646        -4.22071        -5.33904
   H      -12.81874        -2.75171        -6.29567
   H        1.53429        -7.87449         1.06001
   H        3.31070        -7.06830         2.31658
   H        1.02525        -2.31874         5.30205
   H        2.73766        -2.53875         5.73227
   H        1.47623        -2.71332         6.98040
*
