# ORCA input file
# SCF done       -209.445680209799          0.000313656297
! CAM-B3LYP def2-SVP def2/J RIJCOSX Grid4 TightSCF
%maxcore 5000
%tddft
    Mode sTDDFT
    Ethresh 5.0
    maxcore 5000
end

%pal
  nprocs 6
  end
* xyz 0 1
   C        4.24945         0.97589        -5.79940
   C        4.77073         0.78782        -4.58782
   C        6.17169         0.56167        -4.35534
   C        6.78802         0.16816        -3.06485
   C        6.12322        -0.25256        -1.85898
   C        6.70420         0.02896        -0.63014
   C        6.12701        -0.34506         0.58156
   C        4.94228        -1.06141         0.63000
   C        4.33202        -1.47012         1.81666
   C        3.76234        -1.87091         2.80923
   C        3.06445        -2.39309         3.89065
   C        3.35472        -2.40982         5.25266
   C        2.32850        -3.10133         5.88457
   C        1.41728        -3.50693         4.90845
   C        0.22633        -4.30794         5.00397
   C       -0.53105        -4.41410         6.13442
   C       -1.56430        -5.44054         6.30977
   C       -2.68955        -5.24163         7.02538
   C       -3.13859        -3.97422         7.58961
   C       -3.18667        -2.81604         6.81290
   C       -3.57787        -1.61267         7.36670
   C       -3.93218        -1.54303         8.71215
   C       -4.36296        -0.27359         9.37222
   O       -5.10432        -0.25665        10.31485
   O       -3.86758         0.86581         8.86205
   C       -3.93885        -2.70921         9.47622
   C       -3.55329        -3.91104         8.92161
   C       -1.29190        -6.76870         5.73163
   C       -2.29961        -7.46658         5.06797
   C       -2.04570        -8.69903         4.49770
   C       -0.77331        -9.25935         4.58172
   C       -0.41537       -10.56502         3.94899
   O        0.70136       -10.82447         3.59895
   O       -1.41459       -11.44914         3.79088
   C        0.23385        -8.56651         5.25132
   C       -0.02288        -7.33970         5.82555
   C       -0.31727        -3.51594         7.28109
   C       -0.35923        -2.12729         7.14293
   F       -0.50852        -1.58851         5.92786
   C       -0.30369        -1.28155         8.24016
   F       -0.42791         0.03888         8.06976
   C       -0.17018        -1.80828         9.52222
   F       -0.12724        -0.99999        10.57765
   C       -0.09524        -3.18800         9.68572
   F        0.03502        -3.71004        10.90430
   C       -0.17818        -4.01941         8.57485
   F       -0.11486        -5.34184         8.76024
   C       -0.12647        -5.07822         3.79067
   C       -1.40306        -5.02607         3.23354
   F       -2.33376        -4.24167         3.78585
   C       -1.74202        -5.76515         2.10668
   F       -2.97972        -5.70316         1.61415
   C       -0.78945        -6.57716         1.49849
   F       -1.11091        -7.29267         0.42455
   C        0.49934        -6.63542         2.02342
   F        1.42060        -7.39904         1.44557
   C        0.81438        -5.89072         3.15415
   F        2.04671        -5.98361         3.65912
   N        1.89469        -3.06629         3.71005
   C        4.33572        -1.42867        -0.60625
   N        3.24299        -2.17111        -0.72405
  Se        2.91075        -2.42799        -2.42467
   N        4.29091        -1.48464        -2.92579
   C        4.92607        -1.02155        -1.85736
   N        8.10910         0.21312        -3.08665
   C        8.44655         0.56157        -4.34513
   C        9.55697         0.81063        -5.10651
   N       10.91145         0.85575        -5.02193
   C       11.31477         1.23534        -6.20766
   C       10.24084         1.46926        -7.15480
   C        9.10755         1.18963        -6.46389
   C        7.63418         1.16302        -6.54315
   O        6.92754         1.39780        -7.49855
   C        7.24477         0.77124        -5.17706
   H        3.19814         1.16643        -5.93178
   H        4.85720         0.94553        -6.68789
   H        4.14110         0.82347        -3.70989
   H        7.63359         0.57699        -0.63262
   H        6.61234        -0.07619         1.50757
   H        4.21959        -1.97766         5.71397
   H        2.27365        -3.32584         6.93106
   H       -3.32121        -6.09542         7.23222
   H       -2.93570        -2.86980         5.76517
   H       -3.63242        -0.73921         6.73066
   H       -3.22562         0.72387         8.15345
   H       -4.25231        -2.64631        10.50691
   H       -3.54902        -4.80866         9.52193
   H       -3.28142        -7.02557         4.97783
   H       -2.83967        -9.19486         3.95461
   H       -2.25153       -11.14288         4.16410
   H        1.21526        -9.01138         5.30780
   H        0.75993        -6.81908         6.35560
   H        1.44641        -3.17905         2.81517
   H       12.36523         1.34819        -6.41352
   H       10.36411         1.79000        -8.17025
*
