# ORCA input file
# SCF done       -195.359855312736          0.000770375433
! CAM-B3LYP def2-SVP def2/J RIJCOSX Grid4 TightSCF
%maxcore 5000
%tddft
    Mode sTDDFT
    Ethresh 5.0
    maxcore 5000
end

%pal
  nprocs 6
  end
* xyz 0 1
   C        0.08203        -0.15757        -5.74524
   N        0.98110        -0.15889        -4.60273
   C        1.28105        -1.36021        -3.99179
   O        0.80428        -2.40422        -4.39114
   C        2.19848        -1.28314        -2.84643
   C        2.49763        -2.48569        -2.25691
   C        3.30642        -2.84360        -1.16881
   S        4.22038        -1.75014        -0.16890
   C        4.81335        -3.05802         0.78483
   C        5.71196        -2.76575         1.88424
   C        5.66696        -3.46515         3.09350
   C        6.51254        -3.12698         4.12777
   C        7.42923        -2.08599         3.99576
   C        8.30842        -1.68841         5.11399
   O        8.96771        -0.67388         5.11540
   C        8.36291        -2.61668         6.28513
   C        7.65249        -2.48786         7.43319
   S        8.09729        -3.66526         8.61106
   C        9.28750        -4.31165         7.56618
   C        9.32810        -3.66841         6.36047
   C       10.18773        -4.02131         5.21694
   O        9.76621        -3.93287         4.07489
   C       11.55726        -4.48423         5.51366
   C       12.24544        -4.06218         6.64964
   C       13.54816        -4.47440         6.85805
   C       14.17187        -5.31037         5.94553
   C       13.49649        -5.72488         4.80789
   C       12.19970        -5.30557         4.58712
   C        7.48642        -1.38090         2.78000
   C        8.45893        -0.30120         2.58773
   S        8.03533         1.34235         2.83725
   C        9.65552         1.87888         2.41903
   C        9.85431         3.27098         2.55223
   C       10.67858         4.18592         1.95033
   C       10.62824         5.53714         2.53382
   O        9.92245         5.82907         3.47774
   N       11.46756         6.47378         1.96115
   C       11.50813         7.81408         2.52251
   C       12.28696         6.25492         0.87379
   O       13.01155         7.11928         0.44045
   N       12.22141         5.00537         0.29233
   C       13.01935         4.82446        -0.90955
   C       11.44379         3.94972         0.73687
   O       11.39929         2.91359         0.09489
   C       10.46704         0.78440         2.13953
   C        9.77337        -0.43967         2.21870
   C       10.42646        -1.75808         1.96041
   C       11.89942        -1.69239         2.38080
   C       12.01481        -1.53440         3.81139
   N       12.13219        -1.43209         4.94344
   C       12.59199        -0.52139         1.65023
   C       12.55280        -0.78960         0.22840
   N       12.52776        -1.02616        -0.88895
   C       11.94456         0.84144         1.95066
   C        6.62950        -1.72184         1.74911
   C        4.33809        -4.28855         0.35327
   C        3.48850        -4.16943        -0.74820
   C        2.87690        -5.34593        -1.44537
   C        3.08329        -6.65212        -0.66188
   C        2.14234        -6.73039         0.43327
   N        1.40892        -6.78834         1.30722
   C        4.52145        -6.72970        -0.10277
   C        5.46903        -6.58882        -1.18545
   N        6.21220        -6.46786        -2.04429
   C        4.72908        -5.61446         0.93237
   C        2.72672        -0.00465        -2.41347
   O        3.48866         0.12812        -1.46564
   N        2.32520         1.09705        -3.13607
   C        2.82136         2.40966        -2.75485
   C        1.46691         1.07405        -4.22102
   O        1.15951         2.08602        -4.80232
   H       -0.23106        -1.18377        -5.92015
   H        0.59876         0.23716        -6.61935
   H       -0.77984         0.47398        -5.53326
   H        2.00130        -3.31884        -2.74688
   H        4.93822        -4.24608         3.23752
   H        6.45625        -3.66728         5.06078
   H        6.88849        -1.77097         7.65922
   H        9.87335        -5.15387         7.87793
   H       11.77616        -3.38225         7.34285
   H       14.08313        -4.13727         7.73308
   H       15.18879        -5.63177         6.11557
   H       13.98524        -6.36940         4.09227
   H       11.65826        -5.61181         3.70363
   H        9.18782         3.73279         3.27929
   H       10.81810         7.84102         3.36208
   H       11.21463         8.53954         1.76457
   H       12.52092         8.04293         2.85243
   H       12.84644         5.65848        -1.58751
   H       12.72043         3.88655        -1.37146
   H       14.07835         4.79642        -0.65196
   H       10.37699        -1.99504         0.89232
   H        9.91602        -2.55201         2.50768
   H       12.39797        -2.63487         2.11832
   H       13.64942        -0.48065         1.94246
   H       12.16394         1.51803         1.11851
   H       12.39188         1.26989         2.85302
   H        6.67696        -1.17518         0.81905
   H        3.33985        -5.45230        -2.43206
   H        1.80614        -5.18501        -1.59699
   H        2.89352        -7.50472        -1.32555
   H        4.68636        -7.70644         0.36839
   H        5.77190        -5.58650         1.25782
   H        4.10655        -5.84200         1.80373
   H        3.52467         2.27709        -1.93686
   H        1.99003         3.04048        -2.44129
   H        3.31059         2.87582        -3.60901
*
