# ORCA input file
# SCF done       -171.383532768802          0.000699212699
! CAM-B3LYP def2-SVP def2/J RIJCOSX Grid4 TightSCF
%maxcore 5000
%tddft
    Mode sTDDFT
    Ethresh 5.0
    maxcore 5000
end

%pal
  nprocs 6
  end
* xyz 0 1
   C        4.34064        -4.17998        -2.97728
   N        5.00522        -3.21017        -2.14872
   C        6.04981        -2.39346        -2.59559
   O        6.46187        -2.38264        -3.72566
   C        6.46515        -1.53400        -1.43987
   C        7.53795        -0.57714        -1.54748
   C        7.56490         0.76668        -1.40528
   C        8.91760         1.25132        -1.66122
   C        8.92613         2.60280        -1.57779
   C       10.01210         3.54498        -1.71256
   S       10.03498         4.70147        -2.99822
   C       11.58566         5.30824        -2.48348
   C       12.21553         6.37474        -3.20740
   C       12.22223         6.67229        -4.53705
   C       12.97008         7.90520        -4.74333
   C       12.99828         8.20877        -6.06020
   C       13.60349         9.30506        -6.77377
   C       14.89240         9.70002        -6.87262
   C       14.97247        10.87287        -7.74706
   C       16.25928        11.24623        -7.86451
   C       17.05610        10.28807        -7.07346
   O       18.25050        10.22620        -6.91740
   N       16.15453         9.38052        -6.48051
   C       16.57621         8.19813        -5.77979
   N       13.71324        11.17905        -8.15892
   C       13.32640        12.25491        -9.03143
   C       12.80982        10.25830        -7.61446
   O       11.61955        10.30389        -7.78076
   C       12.24573         7.11524        -6.74667
   O       12.07667         6.94429        -7.92695
   N       11.81148         6.22533        -5.75742
   C       11.10620         5.01443        -6.07902
   N       13.38503         8.37053        -3.52875
   C       13.96421         9.65707        -3.24778
   C       12.94397         7.49679        -2.53615
   O       13.12747         7.68556        -1.35762
   C       12.01918         4.65818        -1.34896
   C       11.11976         3.66122        -0.91039
   C       11.31716         2.83706         0.32748
   C       12.54746         3.29362         1.12826
   C       12.22027         4.43549         1.95394
   N       11.95372         5.32442         2.61962
   C       13.70566         3.65317         0.17069
   C       13.94469         2.53116        -0.70572
   N       14.08399         1.63918        -1.40730
   C       13.33022         4.88500        -0.66550
   C        7.51656         3.01339        -1.30762
   O        7.06247         4.12512        -1.20812
   N        6.76067         1.84303        -1.16958
   C        5.32670         1.84247        -1.05419
   N        9.71011         0.18185        -1.95219
   C       11.05028         0.20286        -2.48090
   C        8.92866        -0.98149        -1.92871
   O        9.35742        -2.08522        -2.14118
   C        5.66704        -1.88213        -0.40642
   C        4.75101        -2.94102        -0.84015
   C        3.97664        -3.30436         0.19752
   C        4.40029        -2.48877         1.35293
   O        3.99816        -2.49920         2.48964
   N        5.42643        -1.63054         0.90725
   C        6.19480        -0.79605         1.78985
   H        4.79181        -4.12606        -3.96730
   H        3.27449        -3.95755        -3.04843
   H        4.47194        -5.18470        -2.57182
   H       16.70140        12.05037        -8.41701
   H       17.66258         8.24036        -5.70372
   H       16.28415         7.30051        -6.32952
   H       16.14284         8.15532        -4.77951
   H       13.60621        13.21775        -8.60025
   H       12.24432        12.20717        -9.14706
   H       13.80197        12.14669       -10.00782
   H       11.09743         4.93099        -7.16559
   H       10.07908         5.05029        -5.71208
   H       11.61273         4.15068        -5.64744
   H       14.93621         9.76570        -3.73062
   H       14.08312         9.72871        -2.16700
   H       13.30591        10.45583        -3.59543
   H       11.44266         1.78504         0.05643
   H       10.42164         2.90428         0.95321
   H       12.86000         2.48492         1.80166
   H       14.61826         3.85646         0.74249
   H       14.10812         5.09027        -1.40500
   H       13.26266         5.75879        -0.01199
   H        5.00836         2.88228        -0.98471
   H        5.00457         1.30371        -0.16195
   H        4.87143         1.37861        -1.93165
   H       11.10579         0.86083        -3.34941
   H       11.29328        -0.81600        -2.77976
   H       11.77739         0.53766        -1.74068
   H        3.20133        -4.04073         0.26114
   H        5.76491        -0.89983         2.78596
   H        6.15070         0.25028         1.48302
   H        7.23912        -1.11535         1.80801
*
