# ORCA input file
# SCF done       -183.206559449357          0.000495747083
! CAM-B3LYP def2-SVP def2/J RIJCOSX Grid4 TightSCF
%maxcore 5000
%tddft
    Mode sTDDFT
    Ethresh 5.0
    maxcore 5000
end

%pal
  nprocs 6
  end
* xyz 0 1
   C        4.66643        -3.19250        16.43737
   O        4.67340        -3.36469        15.04299
   C        3.93443        -4.38572        14.49959
   C        3.20404        -5.28321        15.26662
   C        2.50720        -6.32237        14.67399
   C        2.53554        -6.47640        13.30594
   C        3.24964        -5.58641        12.50815
   C        3.25514        -5.78290        11.04914
   C        4.44609        -5.75405        10.32354
   C        4.46086        -5.98258         8.96068
   C        3.26246        -6.24396         8.31233
   C        2.05754        -6.26891         9.03328
   C        2.05064        -6.04291        10.38938
   C        0.89097        -6.57120         8.11882
   C        0.17616        -7.85875         8.53908
   C       -0.09410        -5.39873         8.07819
   C        1.58864        -6.74129         6.78731
   C        1.04946        -7.05756         5.56917
   C        1.88528        -7.19391         4.44040
   C        1.27330        -7.57535         3.20642
   C        1.82027        -7.90900         2.00142
   C        1.05655        -8.33197         0.87382
   C        1.79003        -8.67801        -0.21351
   C        3.18896        -8.54204        -0.02863
   C        4.20018        -8.82602        -0.92122
   C        4.07521        -9.37257        -2.21872
   C        5.26997        -9.57578        -2.83792
   C        6.39151        -9.18755        -2.06248
   C        7.71914        -9.27781        -2.40557
   C        8.69388        -8.81747        -1.51050
   N        8.42101        -8.26090        -0.35051
   C        9.62100        -7.94269         0.19372
   C        9.96908        -7.31573         1.38699
   C       11.30597        -7.11833         1.63751
   C       12.31492        -7.54946         0.75157
   C       13.69349        -7.32552         1.10782
   C       14.20979        -6.25398         1.78524
   C       13.52356        -5.09534         2.18455
   N       12.94253        -4.15221         2.48067
   C       15.63007        -6.46688         1.95065
   C       16.55394        -5.65694         2.55199
   C       16.23474        -4.41556         3.13126
   N       16.03578        -3.39861         3.62352
   C       17.90461        -6.05283         2.63251
   N       19.00128        -6.37992         2.70813
   O       15.98143        -7.64014         1.40679
   C       14.82522        -8.30837         0.87952
   C       15.14763        -8.60825        -0.57558
   C       15.61669        -9.85345        -0.96751
   C       15.96636       -10.07638        -2.28839
   C       15.86521        -9.05787        -3.21997
   C       15.42199        -7.80643        -2.82621
   C       15.06993        -7.57927        -1.50840
   C       14.52179        -9.55015         1.71305
   C       15.20104        -9.78046         2.90103
   C       14.89363       -10.88537         3.67639
   C       13.90303       -11.76389         3.27689
   C       13.22554       -11.53808         2.09035
   C       13.53110       -10.43797         1.31055
   C       11.97310        -8.18810        -0.44939
   C       10.63570        -8.35483        -0.70733
   O       10.03027        -8.90672        -1.78846
   S        5.89530        -8.55024        -0.52147
   S        3.53047        -7.95025         1.57689
   C        3.26310        -6.96638         4.59526
   C        3.80723        -6.63968         5.81865
   C        2.97424        -6.53575         6.92514
   C        3.94717        -4.52176        13.09734
   O        4.60904        -3.69489        12.23586
   C        4.82553        -2.34061        12.56556
   H        5.07993        -4.06427        16.95472
   H        3.65971        -2.98639        16.81562
   H        5.30350        -2.32926        16.62564
   H        3.18342        -5.18656        16.33987
   H        1.95299        -7.01200        15.29204
   H        2.01665        -7.29892        12.83792
   H        5.36951        -5.56132        10.84554
   H        5.39086        -5.96387         8.41242
   H        1.12661        -6.04966        10.94939
   H       -0.26005        -7.74153         9.52815
   H        0.88007        -8.68791         8.56536
   H       -0.61766        -8.09880         7.83554
   H       -0.53033        -5.23968         9.06139
   H       -0.89435        -5.60059         7.36987
   H        0.41826        -4.48841         7.77442
   H       -0.01382        -7.21996         5.46077
   H        0.19124        -7.64509         3.24169
   H       -0.01800        -8.37211         0.91759
   H        1.37255        -9.02496        -1.14148
   H        3.12104        -9.61043        -2.65471
   H        5.38780        -9.99020        -3.82360
   H        8.02667        -9.69178        -3.35115
   H        9.20916        -6.99644         2.07999
   H       11.60093        -6.64325         2.56035
   H       15.71068       -10.64748        -0.24260
   H       16.32515       -11.05000        -2.58651
   H       16.13831        -9.23543        -4.24920
   H       15.35137        -7.00306        -3.54389
   H       14.72494        -6.59999        -1.20574
   H       15.98418        -9.10874         3.21816
   H       15.43317       -11.05455         4.59597
   H       13.66088       -12.62260         3.88463
   H       12.45402       -12.22068         1.76708
   H       12.99991       -10.27574         0.38589
   H       12.71877        -8.49284        -1.16550
   H        3.91344        -7.04180         3.73936
   H        4.86915        -6.47097         5.91319
   H        3.93301        -1.88422        12.99996
   H        5.05731        -1.85095        11.61912
   H        5.66408        -2.21824        13.25407
*
