# ORCA input file
# SCF done       -118.676328145640          0.000501107127
! CAM-B3LYP def2-SVP def2/J RIJCOSX Grid4 TightSCF
%maxcore 5000
%tddft
    Mode sTDDFT
    Ethresh 5.0
    maxcore 5000
end

%pal
  nprocs 6
  end
* xyz 0 1
   N        5.03120         0.96200         5.43823
   C        5.92715         0.36899         5.03651
   C        7.02679        -0.36175         4.53982
   C        8.09614        -0.67491         5.34487
   C        9.18497        -1.40302         4.83570
   C        9.22140        -1.82417         3.53378
   C        8.14792        -1.52700         2.67081
   C        7.97986        -1.85247         1.31660
   C        8.83555        -2.56624         0.43815
   S       10.36134        -3.26187         0.90587
   C       10.67691        -3.87607        -0.69084
   C       11.86083        -4.59131        -1.00811
   S       12.21374        -5.13970        -2.61919
   C       13.72505        -5.83675        -2.12198
   C       14.59690        -6.48690        -3.03759
   S       16.10794        -7.18742        -2.54552
   C       16.48556        -7.69172        -4.16327
   C       17.68557        -8.40183        -4.49487
   S       18.18261        -9.78201        -3.57324
   C       19.47625       -10.11238        -4.62706
   C       19.56245        -9.19859        -5.65666
   C       20.50546        -9.16085        -6.71094
   C       20.45364        -8.14682        -7.62119
   C       19.50741        -7.11038        -7.50214
   C       18.57035        -7.10911        -6.49514
   C       17.73122        -5.98676        -6.33004
   N       17.09914        -5.04228        -6.17375
   C       18.54031        -8.19324        -5.57007
   C       15.46976        -7.33541        -5.02201
   F       15.46517        -7.66306        -6.31806
   C       14.41377        -6.65723        -4.39489
   F       13.32171        -6.23298        -5.03510
   C       13.92170        -5.64444        -0.76768
   F       15.00679        -6.08549        -0.12073
   C       12.88097        -4.94653        -0.14527
   F       12.86435        -4.64756         1.15999
   C        9.63222        -3.54755        -1.53161
   F        9.60399        -3.89443        -2.82172
   C        8.61185        -2.82425        -0.90490
   F        7.51226        -2.41372        -1.55104
   S        6.46776        -1.23634         0.72324
   C        6.05895        -0.56308         2.22721
   C        7.03119        -0.78330         3.17848
   H        8.09906        -0.35812         6.37711
   H       10.00875        -1.63118         5.49419
   H       10.06925        -2.38115         3.16954
   H       20.10934       -10.95880        -4.45037
   H       21.25557        -9.93423        -6.77094
   H       21.16270        -8.10810        -8.43382
   H       19.52979        -6.28864        -8.20241
   H        5.13306        -0.03731         2.35278
*
