# ORCA input file
# SCF done       -171.017938033820          0.000580640203
! CAM-B3LYP def2-SVP def2/J RIJCOSX Grid4 TightSCF
%maxcore 5000
%tddft
    Mode sTDDFT
    Ethresh 5.0
    maxcore 5000
end

%pal
  nprocs 6
  end
* xyz 0 1
   C        1.10501         0.79759         0.50942
   C        0.87361         0.30516        -0.70926
   C        1.82552        -0.41037        -1.50796
   C        1.59279        -0.93532        -2.74799
   C        2.78791        -1.56901        -3.22628
   C        2.99187        -2.20693        -4.41823
   C        4.19633        -2.82290        -4.89726
   C        3.96788        -3.34634        -6.14326
   C        4.94188        -4.03407        -6.94275
   C        4.68303        -4.65477        -8.16161
   F        3.44391        -4.64875        -8.68092
   C        5.65532        -5.32172        -8.92721
   F        5.25243        -5.83827       -10.09267
   C        6.98569        -5.40230        -8.55247
   C        7.99652        -6.06665        -9.35079
   N        7.68346        -7.16298       -10.00148
   N        8.52033        -7.82136       -10.75616
   C        9.78536        -7.49836       -10.89133
   C       10.61180        -8.32159       -11.75450
   C       11.55790        -7.81472       -12.62954
   F       11.74259        -6.48911       -12.71772
   C       12.30608        -8.61674       -13.50788
   F       13.16637        -7.96671       -14.31043
   C       12.18193       -10.00129       -13.57933
   C       12.87653       -10.90084       -14.45161
   C       13.75364       -10.58216       -15.43321
   C       14.38017       -11.53765       -16.27877
   C       15.23161       -11.24452       -17.31269
   C       15.64321       -12.46359       -17.94910
   C       16.46378       -12.61986       -19.02692
   C       16.86479       -13.85202       -19.68164
   C       17.66730       -13.54348       -20.71980
   C       17.83706       -12.09712       -20.79716
   C       17.12418       -11.56089       -19.79295
   F       17.00709       -10.25798       -19.50301
   C       14.96627       -13.52553       -17.19201
   F       15.09711       -14.82722       -17.47173
   C       14.22112       -12.99824       -16.21227
   C       11.23205       -10.53424       -12.67209
   N       10.86990       -11.80683       -12.45687
   N        9.96669       -11.73023       -11.51794
   C        9.32471       -12.89837       -10.99997
   N        9.67911       -10.54093       -11.07359
   C       10.45946        -9.72292       -11.79013
   C       10.27787        -6.35385       -10.19781
   N       11.45303        -5.76961       -10.07900
   O       11.25401        -4.70534        -9.31249
   N        9.99586        -4.56546        -8.91061
   C        9.33781        -5.58497        -9.42373
   C        7.29131        -4.79399        -7.31753
   N        8.44538        -4.73352        -6.64040
   N        8.14836        -4.07592        -5.55705
   C        9.13431        -3.78595        -4.56314
   N        6.90976        -3.69465        -5.42403
   C        6.29755        -4.13610        -6.53103
   C        2.57109        -3.07578        -6.51133
   C        2.01534        -2.40505        -5.49178
   F        0.75283        -1.96510        -5.42907
   C        3.76948        -1.37899        -2.14966
   F        5.02748        -1.83462        -2.20691
   C        3.21751        -0.70173        -1.13421
   H        0.34286         1.32640         1.05482
   H        2.05603         0.69006         1.00159
   H       -0.09969         0.43510        -1.16520
   H        0.67034        -0.88771        -3.29241
   H        5.12368        -2.86407        -4.36360
   H       12.62070       -11.93641       -14.27757
   H       14.01282        -9.55288       -15.63207
   H       15.54312       -10.26408       -17.61476
   H       16.55598       -14.82929       -19.36861
   H       18.12836       -14.23071       -21.40455
   H       18.42589       -11.57913       -21.52908
   H       13.61949       -13.53211       -15.50393
   H        9.62510       -13.74833       -11.60771
   H        8.24421       -12.76366       -11.03579
   H        9.62188       -13.05731        -9.96256
   H       10.09164        -4.15374        -4.92352
   H        8.86979        -4.27324        -3.62411
   H        9.18024        -2.70998        -4.39599
   H        2.09170        -3.35681        -7.42677
   H        3.69107        -0.41709        -0.21592
*
