# ORCA input file
# SCF done       -179.511392101400          0.000324740612
! CAM-B3LYP def2-SVP def2/J RIJCOSX Grid4 TightSCF
%maxcore 5000
%tddft
    Mode sTDDFT
    Ethresh 5.0
    maxcore 5000
end

%pal
  nprocs 6
  end
* xyz 0 1
   C        2.47848         1.72890        -3.52767
   C        2.17409         2.13222        -2.29871
   C        1.12189         1.45789        -1.54340
   S       -0.48557         1.41708        -2.22211
   C       -1.14890         0.68050        -0.80837
   C       -2.45648         0.29782        -0.43185
   S       -3.96909         0.28899        -1.27472
   C       -4.85629        -0.27741         0.14483
   C       -6.25311        -0.48147         0.00099
   C       -6.82573        -0.16197        -1.25138
   C       -8.22109        -0.31775        -1.58031
   C       -9.15656        -0.83380        -0.65738
   C      -10.51091        -1.01552        -1.05385
   C      -11.11383        -0.44364        -2.17065
   C      -12.43128        -0.84473        -2.33611
   C      -12.86416        -1.74289        -1.34604
   S      -11.63783        -2.07732        -0.20807
   C      -14.21752        -2.07849        -1.60661
   S      -15.45736        -3.04905        -0.94422
   C      -16.53623        -2.54411        -2.20481
   C      -15.97633        -1.67551        -3.09089
   C      -14.63666        -1.39578        -2.75959
   C      -13.53527        -0.60029        -3.25902
   C      -13.51730         0.20727        -4.35984
   C      -12.36923         0.92861        -4.74792
   N      -11.44188         1.51881        -5.07561
   C      -14.64754         0.37276        -5.18677
   N      -15.56473         0.51185        -5.86109
   C       -8.61377        -1.14529         0.62339
   C       -9.32408        -1.60923         1.71341
   S       -8.34750        -1.86128         3.08044
   C       -6.95469        -1.35772         2.25807
   C       -7.19948        -0.98109         0.95572
   N       -8.46192         0.04438        -2.84519
   S       -7.11514         0.54038        -3.54247
   N       -6.13347         0.31571        -2.28781
   C       -3.97016        -0.40684         1.23521
   N       -4.24744        -0.76481         2.49403
   C       -3.31096        -0.66207         3.40228
   C       -1.97306        -0.25664         3.13504
   N       -1.61517        -0.14888         1.81338
   C       -2.62444        -0.08979         0.88243
   C       -1.07257         0.12432         4.18799
   O        0.00549         0.68862         3.95156
   C       -1.50404        -0.21902         5.53954
   C       -2.71456        -0.72087         5.81998
   C       -3.72934        -0.96401         4.79926
   O       -4.85145        -1.36248         5.05278
   C       -0.14760         0.43694         0.11297
   N       -0.34417        -0.12916         1.34425
   C        0.77317        -0.55630         2.02304
   C        2.03980        -0.06915         1.57180
   N        2.22877         0.61895         0.48526
   C        1.15422         0.84409        -0.30425
   C        3.25885        -0.34877         2.39307
   O        4.33089         0.15439         2.12845
   C        3.06249        -1.25884         3.52118
   C        1.87609        -1.79858         3.82701
   C        0.65716        -1.53249         3.06564
   O       -0.42090        -2.09707         3.30681
   C        2.80368         3.36458        -1.67927
   C        3.71186         3.01490        -0.47766
   C        3.26164         3.59777         0.87247
   C        1.78249         3.51634         1.01800
   C        1.03772         3.09701         2.06839
   S       -0.65508         3.20350         1.74076
   C       -0.34512         3.82363         0.15522
   C        0.98398         3.93151        -0.08782
   C        1.68961         4.37224        -1.32192
   H        2.01157         0.86725        -3.97442
   H        3.22413         2.23178        -4.11802
   H      -10.59148         0.23848        -2.81383
   H      -17.53533        -2.93155        -2.20664
   H      -16.49993        -1.26118        -3.93297
   H      -10.37481        -1.78536         1.79958
   H       -6.01863        -1.34040         2.77952
   H       -0.77800        -0.02593         6.31682
   H       -3.00206        -0.96338         6.83305
   H        3.94460        -1.46714         4.10993
   H        1.75798        -2.47465         4.66224
   H        3.41714         3.82024        -2.46219
   H        4.72377         3.36794        -0.67914
   H        3.75690         1.93249        -0.37179
   H        3.55177         4.65220         0.93064
   H        3.76266         3.06121         1.67738
   H        1.34989         2.70721         3.01639
   H       -1.17011         4.06384        -0.48615
   H        2.15225         5.34612        -1.13815
   H        0.99689         4.47867        -2.15939
*
