# ORCA input file
# SCF done       -152.291931237759          0.000512853134
! CAM-B3LYP def2-SVP def2/J RIJCOSX Grid4 TightSCF
%maxcore 5000
%tddft
    Mode sTDDFT
    Ethresh 5.0
    maxcore 5000
end

%pal
  nprocs 6
  end
* xyz 0 1
   C        3.39128        -1.34826        -2.08023
   C        2.35985        -1.50659        -1.24754
   C        1.17780        -0.67884        -1.36754
   C       -0.02972        -0.80058        -0.71884
   C       -0.95396         0.17595        -1.11393
   C       -0.43744         1.05468        -2.07464
   S        1.17218         0.67851        -2.49298
   C       -1.44281         2.00276        -2.40713
   S       -1.65585         3.35062        -3.43548
   C       -3.30586         3.54770        -2.85913
   C       -4.11781         4.58931        -3.37437
   C       -3.78544         5.53249        -4.32942
   C       -4.81731         6.42175        -4.62584
   C       -5.96149         6.13887        -3.86916
   S       -5.75889         4.79635        -2.81173
   C       -7.07178         6.98381        -4.09536
   S       -8.64186         6.99583        -3.40246
   C       -9.09452         8.37445        -4.38368
   C      -10.35305         9.01123        -4.36552
   C      -11.46471         8.73528        -3.62739
   C      -11.69520         7.71818        -2.64963
   C      -12.92511         7.72912        -2.10185
   C      -13.81516         8.76495        -2.58783
   O      -14.95015         9.00592        -2.27984
   S      -12.91213         9.72338        -3.82299
   C       -8.03253         8.76385        -5.19415
   C       -6.88371         7.99613        -5.04888
  Si       -5.14457         7.89283        -5.74123
   C       -4.09164         9.38201        -5.31936
   C       -5.10144         7.45833        -7.56165
   C       -3.64387         2.59823        -1.91291
   C       -2.59087         1.72003        -1.65401
   C       -2.32129         0.55856        -0.81513
   C       -3.17693        -0.04183         0.06209
   C       -4.49052         0.42588         0.27270
   N       -5.55904         0.80357         0.44802
   C       -2.80025        -1.17405         0.81372
   N       -2.48726        -2.09516         1.42141
   C        2.30910        -2.59878        -0.19732
   C        3.69346        -2.95986         0.38218
   C        4.27292        -4.29586        -0.12151
   C        3.88790        -4.55430        -1.53789
   C        4.65436        -4.99631        -2.56484
   S        3.74454        -5.15860        -4.01768
   C        2.29219        -4.58028        -3.23411
   C        1.07390        -4.42782        -4.01556
   C        0.30427        -3.34829        -3.89816
   C        0.73208        -5.55154        -4.97059
   C        0.54684        -5.05088        -6.42443
   C       -0.79118        -5.44571        -7.06698
   C       -1.06767        -6.88184        -6.78435
   C       -1.42604        -7.88330        -7.62272
   S       -1.60270        -9.38343        -6.78795
   C       -1.17302        -8.64346        -5.28978
   C       -0.92237        -7.32040        -5.43751
   C       -0.49923        -6.30954        -4.43007
   C        2.53703        -4.32284        -1.91602
   C        1.63121        -3.82765        -0.84210
   H        3.38147        -0.59472        -2.85059
   H        4.27021        -1.96340        -2.03527
   H       -0.25050        -1.56502         0.00265
   H       -2.81368         5.56008        -4.79096
   H      -10.43072         9.84728        -5.05011
   H      -10.93020         7.00903        -2.38691
   H      -13.28288         7.04550        -1.35224
   H       -8.11477         9.59524        -5.87183
   H       -4.11590         9.61737        -4.25700
   H       -4.42414        10.27116        -5.85104
   H       -3.04905         9.22459        -5.58813
   H       -5.72306         6.59599        -7.79524
   H       -4.09220         7.22427        -7.89427
   H       -5.45407         8.28252        -8.17828
   H       -4.61250         2.56280        -1.44750
   H        1.68241        -2.25002         0.62712
   H        3.61723        -3.01626         1.46940
   H        4.39243        -2.15438         0.15520
   H        3.87076        -5.10946         0.49061
   H        5.35733        -4.30203        -0.00402
   H        5.69709        -5.24489        -2.56828
   H        0.56219        -2.53010        -3.25020
   H       -0.60266        -3.23795        -4.46790
   H        1.56146        -6.26554        -4.96603
   H        1.35132        -5.46505        -7.03469
   H        0.64490        -3.96470        -6.45426
   H       -1.59615        -4.84174        -6.63678
   H       -0.76075        -5.25060        -8.13971
   H       -1.60297        -7.84699        -8.67916
   H       -1.14017        -9.23966        -4.39981
   H       -0.25526        -6.77527        -3.47399
   H       -1.31541        -5.60113        -4.26263
   H        1.51214        -4.60353        -0.08033
   H        0.64481        -3.57449        -1.22633
*
