# ORCA input file
# SCF done       -183.073808944340          0.000485400619
! CAM-B3LYP def2-SVP def2/J RIJCOSX Grid4 TightSCF
%maxcore 5000
%tddft
    Mode sTDDFT
    Ethresh 5.0
    maxcore 5000
end

%pal
  nprocs 6
  end
* xyz 0 1
   C      -10.09766        -2.37970        -1.94228
   S      -11.49617        -3.17170        -2.56972
   C      -11.29023        -4.84257        -2.05383
   C      -12.28650        -5.75776        -2.20691
   S      -11.84490        -7.30736        -1.61755
   C      -10.29965        -6.71712        -1.14971
   C      -10.13574        -5.39740        -1.44058
   S       -8.61845        -4.58215        -1.08286
   C       -8.98004        -2.86095        -1.35382
   C       -7.96687        -1.95296        -0.92093
   C       -6.80657        -2.30270        -0.31214
   C       -5.86266        -1.32761         0.09774
   N       -6.06458        -0.02953        -0.11236
   C       -5.00185         0.59817         0.41656
   C       -4.05344        -0.35306         1.01444
   C       -2.90887         0.36506         1.59246
   O       -1.94706        -0.08763         2.18357
   C       -3.21861         1.77244         1.29050
   C       -4.50381         1.87295         0.57805
   N       -4.79751         3.16406         0.29630
   C       -3.79000         3.85623         0.77864
   C       -2.77023         3.05144         1.41024
   C       -4.59009        -1.60246         0.80686
   C       -4.10610        -2.89437         1.15553
   C       -2.96306        -3.07540         1.85684
   C       -2.38655        -4.32327         2.27070
   C       -1.28548        -4.28175         3.10460
   C       -0.68855        -5.46914         3.55926
   C        0.40426        -5.68207         4.39748
   C        1.22069        -4.62597         5.04874
   C        0.97965        -4.58982         6.58417
   N       -0.33206        -4.13806         6.97662
   C        2.72304        -4.76241         4.74531
   N        3.42074        -3.58333         5.22401
   C        0.55943        -7.11010         4.52252
   C        1.39783        -7.86488         5.26007
   C        1.41511        -9.35120         5.14342
   C        0.30497        -9.92898         4.32730
   C       -0.56530        -9.16408         3.64044
   C       -0.47638        -7.75342         3.69400
   C       -1.23187        -6.74759         3.12437
   C       -2.35021        -6.76478         2.25842
   C       -2.90591        -5.59424         1.85503
   C        2.73934        -9.65893         4.47499
   C        2.99191        -9.31823         3.20314
   C        4.25742        -9.54856         2.58290
   N        5.26149       -10.13029         3.22315
   C        6.29639       -10.13282         2.35950
   C        5.93131        -9.50304         1.08349
   C        7.07538        -9.51014         0.16060
   O        7.13809        -9.07404        -0.97063
   C        8.12623       -10.17367         0.95291
   C        7.61089       -10.53500         2.28730
   N        8.57116       -11.14487         3.02276
   C        9.62602       -11.18421         2.24196
   C        9.41766       -10.59695         0.93667
   C        4.61497        -9.12899         1.20921
   C        3.73359        -8.47731         0.30145
   C        4.11199        -8.05402        -0.92641
   C        3.26501        -7.38808        -1.87055
   S        3.83385        -7.67955        -3.54137
   C        2.31583        -7.74131        -4.42076
   C        2.12011        -8.49579        -5.53481
   S        0.53595        -8.29876        -6.17695
   C        0.12299        -7.20437        -4.91658
   C        1.16144        -6.99582        -4.06375
   S        1.08655        -5.87883        -2.70850
   C        2.20279        -6.60382        -1.54319
   C        1.95439        -6.15073        -0.18537
   C        0.77420        -5.76114         0.28657
   H      -10.18533        -1.31149        -2.07948
   H      -13.25340        -5.59492        -2.63774
   H       -9.58673        -7.37085        -0.69029
   H       -8.14334        -0.89996        -1.09094
   H       -6.58462        -3.34183        -0.11640
   H       -3.77544         4.92841         0.68549
   H       -1.87170         3.42311         1.86223
   H       -4.70336        -3.73850         0.84096
   H       -2.41554        -2.19312         2.16265
   H       -0.89266        -3.32212         3.40908
   H        0.90379        -3.65305         4.65333
   H        1.72170        -3.91670         7.01809
   H        1.12564        -5.58957         6.99915
   H       -0.49560        -3.18615         6.66846
   H       -1.05483        -4.72782         6.57780
   H        2.84660        -4.93731         3.66144
   H        3.13986        -5.62385         5.27044
   H        3.12122        -2.76042         4.71110
   H        4.42080        -3.68261         5.09360
   H        2.13924        -7.43445         5.91659
   H        1.41836        -9.80357         6.14138
   H        0.26185       -11.00614         4.28460
   H       -1.35035        -9.61616         3.05149
   H       -2.75180        -7.71188         1.92846
   H       -3.75737        -5.61087         1.19267
   H        3.51255       -10.14267         5.05288
   H        2.22756        -8.82843         2.61487
   H       10.54320       -11.62567         2.59151
   H       10.15052       -10.53056         0.15697
   H        2.70698        -8.35326         0.61734
   H        5.11270        -8.27972        -1.27641
   H        2.82583        -9.13811        -6.02030
   H       -0.85083        -6.76042        -4.88119
   H        2.83181        -6.10812         0.44793
   H       -0.12501        -5.81096        -0.30384
   H        0.66735        -5.38874         1.28959
*
