# ORCA input file
# SCF done       -253.634962496697          0.000758392786
! CAM-B3LYP def2-SVP def2/J RIJCOSX Grid4 TightSCF
%maxcore 5000
%tddft
    Mode sTDDFT
    Ethresh 5.0
    maxcore 5000
end

%pal
  nprocs 6
  end
* xyz 0 1
   C        5.87162        -3.20657         0.76678
   C        5.92490        -2.51123         1.96805
   C        4.75701        -2.00595         2.50093
   C        3.53370        -2.23781         1.85007
   C        3.48420        -2.93039         0.65082
   C        4.66709        -3.40489         0.10980
   C        2.46666        -1.68473         2.66089
   C        3.03284        -1.11599         3.81366
   C        4.54330        -1.21400         3.77092
   C        5.08101         0.23189         3.64888
   C        6.57767         0.36691         3.40262
   C        5.11328        -1.92760         5.00537
   C        4.49616        -3.30624         5.21234
   C        2.24104        -0.52700         4.76848
   C        0.85035        -0.49512         4.58552
   C        0.30146        -1.05446         3.42320
   C        1.09336        -1.65647         2.46672
   C       -0.04467         0.11790         5.53851
   C        0.27452         0.46913         6.79710
   C       -0.60754         1.16172         7.69947
   C       -2.00104         0.97754         7.75798
   C       -2.86671        -0.04424         7.11491
   O       -2.56404        -0.97479         6.41181
   N       -4.17321         0.25202         7.52134
   C       -4.22209         1.33910         8.39747
   O       -5.22732         1.80102         8.86973
   C       -2.81575         1.75766         8.58469
   C       -2.31626         2.72882         9.43099
   C       -0.93519         2.87537         9.43754
   C       -0.10030         2.12502         8.60689
   C        1.32410         2.45915         8.75023
   O        2.26948         2.01238         8.16694
   S        1.51323         3.73337        10.01355
   C       -0.24936         3.84181        10.31445
   O       -0.74361         4.58887        11.10448
   C       -5.34620        -0.37743         7.10559
   C       -5.41124        -1.55036         6.46901
   C       -6.63153        -2.17473         5.99880
   C       -6.61603        -3.52172         5.71014
   C       -7.77056        -4.16416         5.22210
   C       -8.02452        -5.48781         4.87328
   C       -7.13380        -6.67616         4.96452
   C       -6.04400        -6.63486         3.87346
   N       -6.64131        -6.87916         2.57146
   C       -6.49347        -6.84526         6.35357
   N       -5.91118        -8.17392         6.45306
   C       -9.36274        -5.52508         4.33298
   C      -10.06837        -6.53503         3.79207
   C      -11.42065        -6.31234         3.20749
   C      -11.95313        -4.92934         3.38195
   C      -11.24015        -3.93348         3.94448
   C       -9.92864        -4.17597         4.41070
   C       -8.95670        -3.35987         4.96839
   C       -8.95045        -1.98459         5.28094
   C       -7.82574        -1.41723         5.79392
   C      -12.38140        -7.35884         3.72158
   C      -12.30007        -8.64189         3.37968
   C      -13.23115        -9.67826         3.78899
   C      -13.59765       -10.66323         2.86649
   C      -13.07567       -10.90735         1.50184
   O      -12.22101       -10.29425         0.90553
   N      -13.76467       -12.01952         1.02536
   C      -14.70478       -12.49807         1.94875
   O      -15.43725       -13.43442         1.76221
   C      -14.57472       -11.62798         3.13642
   C      -15.23679       -11.67439         4.34707
   C      -14.82999       -10.74993         5.30319
   C      -13.84159        -9.78683         5.05554
   C      -13.44956        -9.02933         6.25384
   O      -12.54759        -8.25431         6.39797
   S      -14.51872        -9.49929         7.62675
   C      -15.39332       -10.73440         6.66131
   O      -16.27651       -11.41129         7.09723
   C      -13.58581       -12.67133        -0.19749
   C      -12.62485       -12.39785        -1.08298
   C      -12.40856       -13.09947        -2.33355
   C      -11.18318       -12.90328        -2.98638
   C      -10.90820       -13.57529        -4.15376
   C      -11.88529       -14.40375        -4.72968
   C      -13.10988       -14.59073        -4.10511
   C      -13.35800       -13.95063        -2.90730
   C      -11.37116       -14.92467        -5.97850
   C      -10.07347       -14.42511        -6.17368
   C       -9.66621       -13.52452        -5.02277
   C       -8.44033       -14.16469        -4.33834
   C       -7.90966       -13.44984        -3.10234
   C       -9.45003       -12.05941        -5.45419
   C       -8.27031       -11.79646        -6.38134
   C       -9.34267       -14.82792        -7.26747
   C       -9.90835       -15.69176        -8.21432
   C      -11.21299       -16.15249        -8.01707
   C      -11.94239       -15.78509        -6.90419
   C       -9.10093       -16.07821        -9.36334
   C       -9.47555       -16.83853       -10.38608
   H        6.78226        -3.60194         0.34071
   H        6.87056        -2.38796         2.47384
   H        2.54207        -3.10289         0.15197
   H        4.65139        -3.94562        -0.82526
   H        4.82219         0.75952         4.56948
   H        4.54661         0.71898         2.82862
   H        7.15441        -0.11153         4.18965
   H        6.84417         1.42164         3.38490
   H        6.85474        -0.06659         2.44558
   H        4.92913        -1.30944         5.88640
   H        6.19248        -2.03556         4.88983
   H        3.42103        -3.22935         5.35901
   H        4.93002        -3.78403         6.08783
   H        4.67869        -3.94085         4.34754
   H        2.68312        -0.07018         5.64016
   H       -0.77051        -1.02585         3.29135
   H        0.65156        -2.08994         1.58190
   H       -1.04054         0.31456         5.16742
   H        1.28032         0.31772         7.15793
   H       -2.95153         3.32683        10.06384
   H       -6.21962         0.19409         7.38970
   H       -4.50143        -2.10085         6.28067
   H       -5.70551        -4.08256         5.85537
   H       -7.73755        -7.57135         4.78114
   H       -5.27493        -7.37173         4.15050
   H       -5.58800        -5.64282         3.85199
   H       -6.93076        -7.84874         2.49509
   H       -5.97222        -6.69671         1.83281
   H       -7.25886        -6.64279         7.12049
   H       -5.68410        -6.12603         6.48609
   H       -6.64162        -8.87874         6.46055
   H       -5.38514        -8.26750         7.31446
   H       -9.68147        -7.54127         3.73201
   H      -11.30721        -6.49273         2.12437
   H      -12.95492        -4.75932         3.01677
   H      -11.65909        -2.94244         4.04043
   H       -9.83667        -1.39331         5.10368
   H       -7.81302        -0.36259         6.01942
   H      -13.14190        -7.00053         4.39764
   H      -11.56848        -8.96107         2.64891
   H      -16.00562       -12.39919         4.56101
   H      -14.31037       -13.46275        -0.32866
   H      -11.91591       -11.61317        -0.86355
   H      -10.46907       -12.21987        -2.55176
   H      -13.86188       -15.22436        -4.55123
   H      -14.31125       -14.09089        -2.42180
   H       -7.64077       -14.23747        -5.07765
   H       -8.71753       -15.18576        -4.06175
   H       -7.65031       -12.41724        -3.32080
   H       -7.01192       -13.95621        -2.75251
   H       -8.63919       -13.46949        -2.29789
   H       -9.33347       -11.45606        -4.55218
   H      -10.36673       -11.72665        -5.94890
   H       -7.33763       -12.14805        -5.94803
   H       -8.17958       -10.72536        -6.55214
   H       -8.41690       -12.27658        -7.34443
   H       -8.32475       -14.49590        -7.41068
   H      -11.65621       -16.82081        -8.73868
   H      -12.94140       -16.16729        -6.75468
   H       -8.09226       -15.68138        -9.35481
   H      -10.46117       -17.26266       -10.46997
   H       -8.79779       -17.06471       -11.19132
*
