# ORCA input file
# SCF done       -180.837018207128          0.000735096865
! CAM-B3LYP def2-SVP def2/J RIJCOSX Grid4 TightSCF
%maxcore 5000
%tddft
    Mode sTDDFT
    Ethresh 5.0
    maxcore 5000
end

%pal
  nprocs 6
  end
* xyz 0 1
   C       16.64912        -7.04606        -5.91058
   S       18.32787        -6.74715        -6.00104
   C       18.12159        -5.04552        -6.00284
   C       16.79551        -4.70769        -5.93888
   C       15.94270        -5.86997        -5.87471
   N       14.60258        -5.73085        -5.74875
   C       14.11806        -4.52307        -5.70374
   C       14.96516        -3.34490        -5.90010
   N       14.43822        -2.10672        -6.03155
   C       15.26002        -0.95532        -6.30858
   N       16.26713        -3.46331        -5.98887
   N       12.73866        -4.42941        -5.51639
   C       11.91892        -5.53741        -5.96453
   C       12.16973        -3.40630        -4.85362
   C       10.83135        -3.17776        -4.71378
   C       10.39745        -2.01080        -4.05170
   N       11.26352        -1.10164        -3.59390
   C       10.52100        -0.10334        -3.09861
   C        9.08279        -0.36902        -3.25182
   C        8.29649         0.75109        -2.71790
   O        7.08614         0.88888        -2.71003
   C        9.33046         1.66797        -2.22013
   C       10.67060         1.12078        -2.47928
   N       11.62910         1.96200        -2.02982
   C       10.97360         2.97839        -1.50846
   C        9.54157         2.85919        -1.59149
   C        8.98654        -1.60429        -3.84822
   C        7.84509        -2.36664        -4.21162
   C        6.58267        -1.88210        -4.10503
   C        5.40001        -2.58181        -4.44827
   N        4.18605        -1.92873        -4.44061
   C        3.21849        -2.80302        -4.81579
   C        1.86205        -2.93573        -5.06905
   C        1.66343        -4.27786        -5.44112
   N        2.87803        -4.93974        -5.41459
   C        3.84378        -4.06184        -5.04933
   C        5.20735        -3.91896        -4.82715
   C        0.48242        -4.95081        -5.80734
   C       -0.73518        -4.36721        -6.00058
   C       -1.86618        -5.13052        -6.36411
   N       -1.85997        -6.46214        -6.25484
   C       -3.10623        -6.86480        -6.54109
   C       -3.97587        -5.72679        -6.86047
   C       -5.33350        -6.18140        -7.17790
   O       -6.30263        -5.51788        -7.49430
   C       -5.22527        -7.64340        -7.02159
   C       -3.85626        -8.02008        -6.63719
   N       -3.74250        -9.36335        -6.51662
   C       -4.93789        -9.83357        -6.80295
   C       -5.90571        -8.81859        -7.13253
   C       -3.18493        -4.60497        -6.79959
   C       -3.57575        -3.28544        -7.14975
   C       -2.75615        -2.27143        -7.52191
   C       -3.22584        -1.00849        -7.95493
   S       -2.09431         0.25685        -8.34888
   C       -3.32886         1.36046        -8.78267
   C       -4.57383         0.79963        -8.64703
   C       -4.52702        -0.54798        -8.15752
   N       -5.66243        -1.23050        -7.90886
   C       -6.80471        -0.63038        -8.13707
   C       -6.84171         0.68027        -8.78841
   N       -8.01851         1.20297        -9.23142
   C       -8.02162         2.38076       -10.06499
   N       -5.75247         1.36943        -9.00343
   N       -7.94872        -1.31555        -7.81407
   C       -7.88557        -2.75650        -7.67933
   C       -9.07978        -0.66916        -7.35047
   C      -10.23247        -1.25514        -7.03833
   H       16.27315        -8.04775        -5.87393
   H       18.97096        -4.39681        -6.05564
   H       13.45004        -2.00398        -6.19504
   H       16.25654        -1.15048        -5.92041
   H       14.82910        -0.08631        -5.81376
   H       15.33359        -0.76109        -7.38232
   H       12.57951        -6.33473        -6.29523
   H       11.27780        -5.22104        -6.78988
   H       11.29942        -5.90249        -5.14564
   H       12.83087        -2.70687        -4.36120
   H       10.08887        -3.83889        -5.12917
   H       11.51212         3.80207        -1.07254
   H        8.83081         3.57430        -1.22643
   H        8.00774        -3.36501        -4.59202
   H        6.44791        -0.87177        -3.73963
   H        4.07247        -0.95940        -4.19559
   H        1.09879        -2.18862        -4.99236
   H        2.99543        -5.91144        -5.64554
   H        5.97060        -4.66603        -4.90670
   H        0.54561        -6.01754        -5.97855
   H       -0.85725        -3.30403        -5.86962
   H       -5.12304       -10.89368        -6.77508
   H       -6.92980        -8.99300        -7.39900
   H       -4.64227        -3.11597        -7.19793
   H       -1.68315        -2.40368        -7.55511
   H       -3.08002         2.34801        -9.11310
   H       -8.77552         0.55249        -9.37969
   H       -7.80735         2.14475       -11.11217
   H       -7.24935         3.05364        -9.69979
   H       -8.99741         2.85935        -9.99610
   H       -6.91000        -3.11037        -7.99551
   H       -8.64917        -3.21700        -8.30678
   H       -8.04790        -3.05934        -6.64471
   H       -8.95801         0.39455        -7.19969
   H      -10.40984        -2.30875        -7.14332
   H      -11.04448        -0.66613        -6.65424
*
