# ORCA input file
# SCF done       -225.962804493489          0.000515407000
! CAM-B3LYP def2-SVP def2/J RIJCOSX Grid4 TightSCF
%maxcore 5000
%tddft
    Mode sTDDFT
    Ethresh 5.0
    maxcore 5000
end

%pal
  nprocs 6
  end
* xyz 0 1
   C        0.42238        -6.12751        14.21045
   C       -0.87993        -5.65707        14.30896
   C       -1.77003        -5.99844        15.43673
   O       -1.51811        -6.68989        16.37660
   S       -3.35311        -5.19585        15.18122
   C       -2.85362        -4.46037        13.61306
   O       -3.58973        -3.79634        12.94847
   C       -1.45208        -4.82586        13.34006
   C       -0.74630        -4.40878        12.19792
   C        0.58422        -4.85408        12.13518
   C        1.13651        -5.69795        13.10555
   C        2.53059        -5.98014        12.70948
   O        3.34180        -6.71070        13.19294
   O        2.78466        -5.24145        11.58145
   C        1.66840        -4.51129        11.19565
   O        1.72183        -3.74867        10.28067
   C       -1.33283        -3.58377        11.16749
   C       -1.10541        -3.80478         9.85800
   C       -1.56498        -2.91857         8.83849
   N       -2.30824        -1.85695         9.09475
   C       -2.41326        -1.18838         7.92754
   C       -1.66330        -1.86459         6.85488
   C       -1.75689        -1.10019         5.60189
   O       -1.22848        -1.32688         4.53415
   C       -2.62935         0.02965         5.97733
   C       -2.99784        -0.06051         7.40761
   N       -3.79683         0.97711         7.76071
   C       -3.94712         1.68153         6.66763
   C       -3.24726         1.14475         5.51432
   C       -1.14365        -3.00270         7.41718
   C       -0.35557        -4.04774         6.85257
   C        0.29377        -3.92047         5.67631
   C        1.15792        -4.92386         5.10592
   C        2.25108        -4.51583         4.36487
   C        3.16509        -5.46359         3.88495
   C        4.37872        -5.30071         3.21008
   C        5.02567        -3.99866         2.91692
   C        6.02640        -3.64361         4.04969
   N        7.04220        -4.67224         4.18064
   C        5.71301        -3.92993         1.54009
   N        5.56506        -2.58539         1.01328
   C        4.90905        -6.61947         2.98404
   C        6.06119        -7.03567         2.41724
   C        6.44100        -8.47714         2.41784
   C        5.35910        -9.40991         2.84968
   C        4.20449        -8.97866         3.39977
   C        3.95087        -7.59433         3.52808
   C        2.90676        -6.87595         4.09500
   C        1.75649        -7.27053         4.81019
   C        0.92587        -6.31753         5.31720
   C        7.58660        -8.50611         3.41147
   C        7.36972        -8.44810         4.73241
   C        8.40908        -8.39036         5.70764
   N        9.69596        -8.37936         5.39652
   C       10.35456        -8.24693         6.56540
   C        9.41845        -8.15319         7.70052
   C       10.15262        -7.97050         8.96696
   O        9.70312        -7.79022        10.07551
   C       11.55905        -8.02265         8.52823
   C       11.63511        -8.17786         7.05706
   N       12.92603        -8.22212         6.64809
   C       13.63661        -8.11663         7.74488
   C       12.84707        -7.99183         8.95439
   C        8.16541        -8.27213         7.16368
   C        6.87508        -8.28632         7.77348
   C        6.65805        -8.16173         9.09336
   C        5.32973        -8.20846         9.66560
   C        4.21305        -7.49374         9.19387
   C        4.25259        -6.49010         8.11729
   O        5.15160        -6.17257         7.39129
   S        2.63929        -5.71161         7.97779
   C        1.93817        -6.71088         9.26834
   O        0.80625        -6.55503         9.65587
   C        2.94925        -7.63700         9.78854
   C        2.68087        -8.52408        10.84790
   C        3.80584        -9.20383        11.33096
   C        5.06734        -9.03124        10.76757
   C        5.99922        -9.95437        11.45445
   O        7.15238       -10.17294        11.25435
   O        5.26730       -10.62171        12.40670
   C        3.94654       -10.24824        12.38141
   O        3.13537       -10.75921        13.08778
   C        1.32721        -8.72454        11.34502
   C        0.99832        -8.88286        12.62110
   H        0.84579        -6.77225        14.96331
   H       -1.99546        -2.78134        11.46258
   H       -0.52129        -4.65824         9.54833
   H       -4.54534         2.57620         6.67531
   H       -3.24658         1.57272         4.53136
   H       -0.24481        -4.94961         7.43850
   H        0.23542        -2.97978         5.14433
   H        2.41674        -3.46275         4.19371
   H        4.25452        -3.22220         2.91514
   H        5.45191        -3.48534         4.97371
   H        6.51620        -2.70294         3.78762
   H        6.68679        -5.44904         4.72749
   H        7.86145        -4.31250         4.65530
   H        5.20932        -4.60857         0.84688
   H        6.76188        -4.24420         1.64634
   H        6.09923        -1.92172         1.56317
   H        5.88836        -2.53141         0.05497
   H        6.79528        -6.34163         2.04297
   H        6.82456        -8.77239         1.43580
   H        5.57366       -10.46294         2.75422
   H        3.45696        -9.68345         3.73469
   H        1.55054        -8.32079         4.95877
   H        0.04484        -6.60846         5.86894
   H        8.59756        -8.52424         3.03458
   H        6.35361        -8.41337         5.10019
   H       14.71183        -8.12362         7.69735
   H       13.23849        -7.89742         9.94779
   H        6.03229        -8.43781         7.11313
   H        7.48857        -8.10372         9.78641
   H        0.55481        -8.69755        10.58775
   H        1.72934        -8.86232        13.40911
   H       -0.02715        -9.03235        12.91213
*
