# ORCA input file
# SCF done       -194.207502388681          0.000364783356
! CAM-B3LYP def2-SVP def2/J RIJCOSX Grid4 TightSCF
%maxcore 5000
%tddft
    Mode sTDDFT
    Ethresh 5.0
    maxcore 5000
end

%pal
  nprocs 6
  end
* xyz 0 1
   C        6.71731        -5.97363        -2.72096
   C        6.14591        -5.20366        -3.65170
   C        5.42337        -4.01189        -3.30038
   C        5.46650        -3.50363        -2.04622
   C        6.46539        -4.09452        -1.06463
   C        6.65447        -5.60893        -1.26246
   N        7.84638        -6.11629        -0.61591
   C        8.82785        -5.33701        -0.50499
   C        8.77667        -3.93188        -0.96366
   N        7.69646        -3.35659        -1.24386
   F        9.92944        -3.29085        -1.12359
   F        9.94993        -5.77641         0.05016
   C        4.76580        -2.34151        -1.59395
   N        5.17692        -1.71977        -0.49854
   C        4.41011        -0.61934        -0.38189
   C        3.42904        -0.53555        -1.47063
   C        2.59633         0.66700        -1.31546
   O        1.71326         1.08143        -2.03854
   C        3.11083         1.25909        -0.06694
   C        4.22180         0.44766         0.46566
   N        4.68066         0.96840         1.62936
   C        3.93291         2.02315         1.85038
   C        2.92474         2.25583         0.83726
   C        3.59989        -1.67284        -2.22601
   C        2.79755        -2.17850        -3.29036
   C        1.91943        -1.40313        -3.96696
   C        1.04425        -1.80933        -5.03097
   C        0.30219        -0.83145        -5.66748
   C       -0.56035        -1.16683        -6.72275
   C       -1.38726        -0.37321        -7.51517
   C       -1.55807         1.10144        -7.40346
   C       -1.18445         1.82608        -8.71274
   N       -0.75491         3.17218        -8.39958
   C       -2.98554         1.45177        -6.94201
   N       -3.08667         2.87092        -6.63750
   C       -2.04589        -1.25690        -8.44339
   C       -2.92201        -1.02411        -9.44046
   C       -3.50011        -2.13249       -10.24287
   C       -2.92930        -3.48717        -9.95755
   C       -2.04767        -3.70486        -8.95996
   C       -1.57930        -2.62977        -8.17470
   C       -0.67607        -2.55793        -7.12944
   C        0.08253        -3.54226        -6.45690
   C        0.91454        -3.17467        -5.44823
   C       -4.95833        -2.27718        -9.89051
   C       -5.90418        -2.60015       -10.78253
   C       -7.27800        -2.77221       -10.42138
   N       -7.79041        -2.17685        -9.35446
   C       -9.11437        -2.42718        -9.38773
   C       -9.46849        -3.24262       -10.55805
   C      -10.91562        -3.50732       -10.59583
   O      -11.54337        -4.14452       -11.41345
   C      -11.39617        -2.79923        -9.39456
   C      -10.26696        -2.15940        -8.68685
   N      -10.70068        -1.51961        -7.57467
   C      -11.99773        -1.71987        -7.54866
   C      -12.49658        -2.51307        -8.65035
   C       -8.29353        -3.50684       -11.21207
   C       -8.10749        -4.36539       -12.33691
   C       -6.93996        -4.96674       -12.64797
   C       -6.71096        -5.88358       -13.72980
   C       -7.67675        -6.43355       -14.49684
   C       -7.38707        -7.37730       -15.53968
   C       -6.16871        -7.89842       -15.69596
   C       -5.03549        -7.53933       -14.77433
   C       -5.25088        -6.19200       -14.04901
   N       -4.45651        -6.06624       -12.84575
   C       -4.13936        -7.11301       -12.22491
   C       -4.46065        -8.46502       -12.71676
   N       -4.86042        -8.67371       -13.88868
   F       -4.30352        -9.48449       -11.87889
   F       -3.43633        -7.00424       -11.09902
   H        7.23443        -6.88938        -2.96067
   H        6.18642        -5.48123        -4.69417
   H        4.86887        -3.51868        -4.08272
   H        6.12465        -3.86928        -0.04672
   H        5.81351        -6.15425        -0.81049
   H        4.09767         2.63252         2.72204
   H        2.21086         3.05579         0.83896
   H        2.89477        -3.23150        -3.51096
   H        1.86239        -0.35561        -3.70270
   H        0.39614         0.19616        -5.34891
   H       -0.86408         1.47473        -6.64430
   H       -2.03950         1.78980        -9.40738
   H       -0.34555         1.30290        -9.18488
   H       -1.52027         3.66248        -7.94521
   H       -0.49540         3.67482        -9.24056
   H       -3.23727         0.80637        -6.08313
   H       -3.69995         1.23202        -7.73975
   H       -2.50102         3.09414        -5.83821
   H       -4.04243         3.10877        -6.39413
   H       -3.28187        -0.03291        -9.67261
   H       -3.41581        -1.90385       -11.31245
   H       -3.29440        -4.29473       -10.57184
   H       -1.67295        -4.69998        -8.76987
   H       -0.00765        -4.57747        -6.75177
   H        1.48868        -3.92913        -4.93293
   H       -5.21558        -2.19132        -8.84551
   H       -5.65420        -2.72638       -11.82721
   H      -12.59406        -1.30615        -6.75386
   H      -13.52048        -2.78922        -8.80751
   H       -9.00507        -4.56473       -12.90617
   H       -6.07418        -4.77662       -12.03000
   H       -8.71267        -6.19948       -14.30970
   H       -8.20034        -7.68364       -16.17978
   H       -5.95980        -8.66886       -16.41926
   H       -4.10595        -7.48605       -15.35976
   H       -4.90616        -5.38210       -14.70856
*
