# ORCA input file
# SCF done       -207.598914156565          0.000508243002
! CAM-B3LYP def2-SVP def2/J RIJCOSX Grid4 TightSCF
%maxcore 5000
%tddft
    Mode sTDDFT
    Ethresh 5.0
    maxcore 5000
end

%pal
  nprocs 6
  end
* xyz 0 1
   C       -5.12317        10.72838         6.45312
   C       -4.65358        11.66292         7.33571
   C       -4.92582        13.04404         7.23906
   N       -5.11387        14.17564         7.20595
   C       -3.80308        11.37689         8.42451
   N       -3.10928        11.20617         9.32283
   C       -5.96477        10.98840         5.29254
   C       -6.05595         9.80741         4.51143
   C       -6.79670         9.74172         3.35553
   C       -7.51655        10.87786         2.97670
   C       -7.43411        12.04691         3.77173
   C       -6.65618        12.12695         4.91948
   S       -8.44871        13.30729         3.14154
   C       -8.96778        12.27833         1.85192
   C       -8.40568        11.05080         1.87813
   C       -5.28113         8.73482         5.16180
   O       -4.91776         7.68721         4.67670
   C       -4.89046         9.29261         6.49610
   C       -4.46211         8.55075         7.54680
   C       -4.60834         7.13382         7.62052
   C       -3.76622         6.19212         8.36217
   N       -4.17637         4.95604         8.31381
   C       -5.31762         4.97218         7.57114
   C       -5.61361         6.34005         7.11889
   C       -6.87714         6.36753         6.43170
   S       -7.75388         7.71541         6.07330
   C       -7.26353         4.98928         6.32618
   C       -6.31525         4.15653         7.09465
   N       -6.70252         2.85250         7.07415
   C       -7.79497         2.82232         6.36282
   C       -8.21463         4.12134         5.83552
   C       -9.28991         4.33334         4.90565
   C      -10.37372         3.47567         4.86452
   C      -11.37198         3.66573         3.89692
   C      -12.53332         2.93447         3.62619
   C      -13.02887         1.76951         4.40158
   C      -14.45277         2.00824         4.97754
   N      -14.55215         3.10384         5.90629
   C      -12.97959         0.47965         3.55876
   N      -11.59156         0.14810         3.30510
   C      -13.12606         3.51607         2.44506
   C      -14.21951         3.18930         1.72440
   C      -14.60130         3.95063         0.50834
   C      -13.60729         4.97187         0.06133
   C      -12.54602         5.32507         0.81786
   C      -12.27128         4.63558         2.01596
   C      -11.22646         4.73134         2.92287
   C      -10.12954         5.61282         3.01012
   C       -9.19899         5.42116         3.98231
   C      -15.81296         4.80809         0.79153
   C      -16.92390         4.79351         0.04409
   C      -17.98395         5.74536         0.15515
   C      -19.27860         5.59938        -0.51733
   N      -20.05550         6.63777        -0.42632
   C      -19.34454         7.55878         0.28216
   C      -18.05430         6.99640         0.72817
   C      -17.30296         8.00939         1.42380
   S      -15.93875         7.82855         2.33271
   C      -18.06008         9.21819         1.22012
   C      -19.35669         8.89233         0.59211
   N      -20.10278        10.01403         0.41448
   C      -19.36690        10.99632         0.84025
   C      -18.03687        10.59569         1.31745
   C      -17.07386        11.53720         1.76161
   C      -15.72390        11.43768         1.85736
   C      -14.76372        10.45614         1.40719
   C      -14.82126         9.70994         0.25828
   C      -13.78634         8.85556        -0.16816
   N      -12.97904         8.13900        -0.55964
   C      -15.89718         9.74342        -0.64833
   N      -16.74681         9.73301        -1.42036
   C      -13.60895        10.55786         2.28883
   C      -13.71307        11.75653         3.04170
   C      -14.98855        12.41827         2.72083
   O      -15.40345        13.48605         3.10183
   C      -12.76259        12.12632         3.96327
   C      -11.69282        11.25311         4.18071
   C      -11.62256        10.03883         3.45399
   C      -12.56067         9.68373         2.49203
   S      -10.26453         9.08340         3.95767
   C       -9.80536        10.29387         5.10043
   C      -10.62251        11.36835         5.11153
   H       -6.84446         8.83095         2.77942
   H       -6.62293        13.03919         5.49171
   H       -9.67248        12.66421         1.14107
   H       -8.61010        10.28000         1.15728
   H       -4.05129         9.03177         8.42579
   H       -2.86925         6.45534         8.89498
   H       -8.28835         1.88504         6.17158
   H      -10.45470         2.66750         5.57565
   H      -12.35441         1.60745         5.24900
   H      -14.76647         1.10006         5.49921
   H      -15.15852         2.19736         4.16692
   H      -13.94528         2.96721         6.70622
   H      -14.31070         3.98500         5.46710
   H      -13.57743         0.61366         2.64322
   H      -13.41751        -0.33951         4.13528
   H      -11.16021         0.84539         2.70741
   H      -11.50658        -0.75587         2.85635
   H      -14.88373         2.38452         2.00525
   H      -14.84721         3.25432        -0.30220
   H      -13.82103         5.48034        -0.86515
   H      -11.87973         6.10660         0.48670
   H      -10.03440         6.42310         2.30373
   H       -8.34660         6.07679         4.05309
   H      -15.69313         5.51988         1.59461
   H      -17.05049         4.04727        -0.73153
   H      -19.60059         4.71672        -1.04311
   H      -19.72724        12.00988         0.81559
   H      -17.48420        12.47641         2.12479
   H      -12.85446        13.04678         4.51845
   H      -12.48639         8.74412         1.96988
   H       -8.94156        10.11495         5.70910
   H      -10.49063        12.21717         5.75773
*
