# ORCA input file
# SCF done       -250.531840785216          0.000955205278
! CAM-B3LYP def2-SVP def2/J RIJCOSX Grid4 TightSCF
%maxcore 5000
%tddft
    Mode sTDDFT
    Ethresh 5.0
    maxcore 5000
end

%pal
  nprocs 6
  end
* xyz 0 1
   C        5.60144         2.21526        -3.70511
   C        5.25509         1.08334        -4.64361
   C        6.04947        -0.06048        -4.62093
   C        5.75570        -1.13189        -5.44239
   C        4.66507        -1.07685        -6.29450
   C        3.87287         0.05594        -6.32053
   C        4.16331         1.13071        -5.49696
   C        7.08628         2.54612        -3.75764
   C        7.76067         2.44350        -4.96982
   C        9.09514         2.79264        -5.05842
   C        9.77093         3.25757        -3.94286
   C        9.09785         3.38783        -2.74136
   C        7.76072         3.04301        -2.64961
   C        5.14322         1.94282        -2.29614
   C        4.49968         2.97112        -1.68956
   C        4.24444         4.12187        -2.52715
   C        3.65577         5.29538        -2.14860
   C        3.23575         5.57362        -0.83293
   N        2.89027         5.86011         0.22242
   C        3.45366         6.33430        -3.08115
   N        3.29664         7.17431        -3.84572
   S        4.76537         3.82164        -4.15984
   C        4.06448         2.86502        -0.34926
   N        3.73894         2.68954         0.73446
   C        5.45858         0.68933        -1.62581
   C        6.44527         0.49980        -0.71470
   C        6.47653        -0.90728        -0.35962
   C        7.35186        -1.47057         0.57519
   N        8.08396        -1.94452         1.32230
   C        5.52983        -1.56807        -1.09412
   C        4.83343        -0.60997        -1.90269
   C        3.72672        -0.81957        -2.69840
   C        3.29802        -2.08306        -3.34980
   C        2.09698        -1.83069        -3.96492
   C        1.74212        -0.46057        -3.73890
   C        2.74497         0.15617        -3.02192
   C        0.57328         0.14501        -4.21685
   N       -0.37954         0.63164        -4.63301
   C        4.09628        -3.25002        -3.44433
   C        3.79857        -4.32975        -4.21347
   C        4.56052        -5.53866        -4.29579
   C        4.28760        -6.43363        -5.32452
   C        4.99337        -7.63506        -5.42801
   C        4.91358        -8.67745        -6.36581
   C        4.09181        -8.66098        -7.59684
   C        5.02515        -8.45189        -8.83705
   N        4.35926        -8.16742       -10.07110
   C        3.15391        -9.88128        -7.76150
   N        3.81902       -11.06760        -8.27524
   C        5.85461        -9.68331        -5.93983
   C        6.17059       -10.88408        -6.46802
   C        7.19082       -11.76527        -5.83755
   C        7.77560       -11.23693        -4.57253
   C        7.45529       -10.03187        -4.06112
   C        6.50365        -9.21408        -4.71394
   C        5.98237        -7.96336        -4.41896
   C        6.24778        -7.04617        -3.38168
   C        5.56730        -5.86955        -3.33555
   C        8.28567       -12.03032        -6.85695
   C        8.15251       -12.87439        -7.87760
   C        9.19644       -13.14882        -8.83914
   C       10.52540       -13.27108        -8.59050
   C       11.18839       -13.69222        -9.81452
   C       12.57037       -13.86862        -9.94536
   N       13.70691       -14.00077       -10.04286
   C       10.24818       -13.85825       -10.79575
   C        8.97351       -13.48358       -10.25681
   C        7.81232       -13.27587       -10.96725
   C        7.51253       -13.72210       -12.33626
   C        6.35796       -13.09662       -12.73288
   C        5.88918       -12.27670       -11.64871
   C        6.74599       -12.40894       -10.57778
   C        4.74054       -11.48525       -11.63665
   N        3.79632       -10.83370       -11.54458
   C        8.20713       -14.75759       -13.02518
   C        8.19074       -14.91777       -14.37072
   C        8.80377       -15.98465       -15.08842
   C        9.15943       -17.22168       -14.61170
   C        9.71703       -18.12038       -15.58859
   C       10.16904       -19.39789       -15.37881
   C       10.19736       -20.04815       -14.13146
   N       10.25975       -20.63997       -13.15039
   C       10.66017       -20.16282       -16.45635
   N       11.05236       -20.77746       -17.34199
   S        9.74709       -17.39971       -17.17138
   C        9.06988       -15.77622       -16.55731
   C       10.16259       -14.76616       -16.83576
   C       10.45918       -14.46350       -18.16192
   C       11.47800       -13.58261       -18.46764
   C       12.22038       -12.99916       -17.45326
   C       11.94113       -13.30844       -16.13472
   C       10.92030       -14.19183       -15.82498
   C        7.76121       -15.44417       -17.24718
   C        6.82606       -16.44293       -17.48756
   C        5.60694       -16.13737       -18.06434
   C        5.30258       -14.82812       -18.39529
   C        6.22299       -13.82598       -18.14207
   C        7.44521       -14.12881       -17.56800
   C        8.93059       -17.64554       -13.28826
   N        8.70666       -17.96568       -12.20939
   H        6.90469        -0.10651        -3.96173
   H        6.38051        -2.01215        -5.41668
   H        4.43756        -1.91474        -6.93589
   H        3.02017         0.11091        -6.98022
   H        3.53562         2.00859        -5.53093
   H        7.23687         2.09579        -5.84801
   H        9.60490         2.70655        -6.00605
   H       10.81311         3.52876        -4.01299
   H        9.60950         3.76619        -1.86941
   H        7.24678         3.17512        -1.70898
   H        7.11813         1.23380        -0.31363
   H        5.25735        -2.59785        -0.96918
   H        1.49925        -2.51401        -4.53696
   H        2.72243         1.16726        -2.66580
   H        5.02856        -3.24077        -2.90251
   H        2.91727        -4.29167        -4.83958
   H        3.52490        -6.18497        -6.04912
   H        3.43899        -7.78188        -7.54489
   H        5.64397        -9.34004        -8.96893
   H        5.68246        -7.60706        -8.60808
   H        3.85549        -8.95833       -10.45554
   H        3.74553        -7.36580       -10.00681
   H        2.31771        -9.56797        -8.40526
   H        2.74252       -10.11893        -6.77665
   H        3.24859       -11.88610        -8.09654
   H        3.93495       -10.99691        -9.28125
   H        5.66333       -11.24514        -7.35329
   H        6.70673       -12.73141        -5.62959
   H        8.50227       -11.87110        -4.08732
   H        7.91051        -9.68081        -3.14677
   H        6.98578        -7.28606        -2.63099
   H        5.76484        -5.17713        -2.53289
   H        9.18639       -11.44718        -6.73691
   H        7.22663       -13.42012        -8.01451
   H       11.02852       -13.13389        -7.65213
   H       10.44767       -14.10716       -11.81961
   H        5.83761       -13.22636       -13.66336
   H        6.68541       -11.86685        -9.65402
   H        8.76595       -15.44681       -12.40938
   H        7.72125       -14.15653       -14.97981
   H        9.88798       -14.92960       -18.95218
   H       11.69704       -13.35664       -19.50010
   H       13.01906       -12.31343       -17.69140
   H       12.52220       -12.86886       -15.33795
   H       10.72272       -14.42927       -14.79009
   H        7.05306       -17.46829       -17.23401
   H        4.89443       -16.92572       -18.25354
   H        4.35179       -14.58949       -18.84703
   H        5.99285       -12.80090       -18.39151
   H        8.15592       -13.33803       -17.37514
*
