# ORCA input file
# SCF done       -214.808237564263          0.000303618963
! CAM-B3LYP def2-SVP def2/J RIJCOSX Grid4 TightSCF
%maxcore 5000
%tddft
    Mode sTDDFT
    Ethresh 5.0
    maxcore 5000
end

%pal
  nprocs 6
  end
* xyz 0 1
   C       -5.18514         8.43165         3.56937
   C       -5.34838         7.32098         4.35960
   C       -6.53826         7.00811         5.04658
   N       -7.48035         6.69223         5.62277
   C       -4.35402         6.35375         4.60861
   N       -3.59183         5.53350         4.86640
   C       -6.17594         9.48282         3.36524
   C       -5.59194        10.50526         2.56488
   C       -6.28154        11.62860         2.21365
   C       -7.61372        11.78706         2.65889
   C       -8.20811        10.76536         3.45327
   C       -7.46824         9.61035         3.79881
   C       -9.53973        10.92976         3.88487
   C      -10.25124        12.05016         3.55131
   C       -9.66403        13.05691         2.77112
   C       -8.37311        12.92809         2.33493
   C       -4.21257        10.12560         2.21211
   O       -3.46660        10.72527         1.46224
   C       -3.98524         8.81168         2.85948
   C       -2.88406         8.02409         2.64792
   C       -1.66585         8.44819         2.08597
   S       -0.77663         7.32944         1.09658
   C        0.36506         8.51778         0.59390
   C        0.15096         9.72385         1.27865
   C       -0.99472         9.67915         2.13750
   C       -1.24752        10.77758         2.98442
   F       -2.21280        10.69875         3.91755
   C       -0.47238        11.90279         2.94294
   C        0.63682        11.95955         2.08827
   C        0.95002        10.88581         1.30396
   F        2.08896        10.93008         0.58150
   C        1.28663         8.17155        -0.45941
   C        1.56835         9.05070        -1.48169
   C        2.33929         8.63938        -2.59359
   C        2.69789         9.26014        -3.78676
   C        2.62761        10.67850        -4.26993
   C        2.02829        11.69744        -3.29111
   N        2.92431        11.94583        -2.17525
   C        4.04504        11.15030        -4.68647
   N        5.04153        10.63763        -3.76381
   C        3.31804         8.24026        -4.60738
   C        3.61899         8.21681        -5.91863
   C        4.26741         7.03728        -6.55576
   C        4.43727         5.85281        -5.65400
   C        4.03112         5.85614        -4.37203
   C        3.43561         7.01259        -3.81458
   C        2.80920         7.25332        -2.61224
   C        2.54074         6.38863        -1.52656
   C        1.79431         6.83095        -0.48804
   C        5.63865         7.45709        -7.01599
   C        6.11246         7.20108        -8.24273
   C        7.41618         7.57413        -8.69247
   S        8.44717         8.55846        -7.73456
   C        9.72140         8.54088        -8.91885
   C        9.31397         7.81082       -10.06479
   C        8.00345         7.25999        -9.93386
   C        7.48336         6.49559       -10.99782
   F        6.25190         5.95489       -10.89833
   C        8.19507         6.28277       -12.14596
   C        9.46615         6.84880       -12.28711
   C       10.00397         7.59648       -11.27307
   F       11.21299         8.15091       -11.47585
   C       10.99272         9.09539        -8.73847
   C       11.46085         9.91542        -7.73911
   C       12.81871        10.41225        -7.64658
   C       13.92221         9.90807        -8.28560
   C       15.21866        10.44669        -8.15674
   N       16.29368        10.84638        -8.09926
   C       13.93517         8.75377        -9.09737
   N       14.03777         7.80031        -9.72934
   C       12.82391        11.49624        -6.66952
   C       11.52439        11.58598        -6.09203
   C       10.65164        10.57643        -6.71145
   O        9.48163        10.36002        -6.43517
   C       11.22668        12.50065        -5.12398
   C       12.23291        13.39160        -4.68633
   C       13.53127        13.31609        -5.26708
   C       13.81145        12.35235        -6.26414
   C       14.52474        14.21396        -4.82826
   C       14.25200        15.14165        -3.85965
   C       12.97403        15.21373        -3.28661
   C       11.98594        14.35726        -3.69117
   H       -5.81585        12.39048         1.60601
   H       -7.94810         8.85213         4.39716
   H       -9.98707        10.15220         4.48673
   H      -11.27080        12.16672         3.88736
   H      -10.23934        13.93479         2.51696
   H       -7.91563        13.70015         1.73325
   H       -2.96006         6.96218         2.84790
   H       -0.69716        12.72774         3.59900
   H        1.27376        12.82918         2.07951
   H        1.10079        10.02069        -1.46493
   H        1.99495        10.69523        -5.16848
   H        1.01559        11.36999        -3.00103
   H        1.91192        12.64650        -3.82633
   H        3.02355        11.11098        -1.60773
   H        2.55135        12.67635        -1.57908
   H        4.03036        12.25092        -4.74611
   H        4.29531        10.77014        -5.67956
   H        4.85307        11.01817        -2.84160
   H        5.96519        10.94761        -4.04785
   H        3.41792         9.05124        -6.57476
   H        3.68729         6.73696        -7.43943
   H        4.90973         4.98978        -6.09700
   H        4.14259         4.97469        -3.75736
   H        2.91529         5.37638        -1.55000
   H        1.56141         6.18347         0.34449
   H        6.24483         7.95888        -6.27496
   H        5.48655         6.67782        -8.95112
   H        7.76746         5.68993       -12.93768
   H       10.03137         6.70749       -13.19366
   H       11.70373         8.85500        -9.51657
   H       10.23606        12.54596        -4.69623
   H       14.80320        12.32178        -6.68654
   H       15.50781        14.15306        -5.27159
   H       15.02047        15.82453        -3.52963
   H       12.77586        15.95121        -2.52317
   H       10.99969        14.40854        -3.25328
*
