# ORCA input file
# SCF done       -188.206472316513          0.000907976591
! CAM-B3LYP def2-SVP def2/J RIJCOSX Grid4 TightSCF
%maxcore 5000
%tddft
    Mode sTDDFT
    Ethresh 5.0
    maxcore 5000
end

%pal
  nprocs 6
  end
* xyz 0 1
   C       -0.43840         2.12568         2.96753
   C       -0.28403         3.31059         3.63067
   C       -0.48863         3.46444         5.02006
   N       -0.64359         3.64562         6.14198
   C        0.17362         4.49900         3.03184
   N        0.58725         5.48566         2.61307
   C       -0.70081         0.82905         3.56842
   C       -0.38159        -0.19421         2.62432
   C       -0.50540        -1.51908         2.93427
   C       -0.96575        -1.88647         4.21800
   C       -1.30550        -0.86881         5.15804
   C       -1.16671         0.49374         4.81257
   C       -1.77387        -1.25019         6.43222
   C       -1.89677        -2.57150         6.76585
   C       -1.55901        -3.57194         5.84155
   C       -1.10383        -3.23702         4.59497
   C        0.04053         0.41994         1.35993
   O        0.45124        -0.10292         0.35226
   C       -0.19773         1.88789         1.55122
   C       -0.32602         2.68684         0.47707
   C       -0.84632         4.02921         0.42051
   C       -2.07922         4.46972         0.83374
   N       -3.11916         3.72104         1.43121
   O       -4.22760         4.21595         1.43076
   O       -2.84990         2.63287         1.91585
   C       -2.25528         5.86316         0.46127
   C       -1.11493         6.29886        -0.10412
   C       -0.15637         5.20917        -0.14015
   C        1.15868         5.26552        -0.51106
   C        2.03283         4.16213        -0.83339
   C        3.14878         4.64353        -1.42366
   C        3.09235         6.09156        -1.41167
   N        4.16380         6.89935        -1.83892
   O        4.12018         8.09663        -1.59636
   O        5.08095         6.35315        -2.42051
   C        1.91790         6.50223        -0.82399
   C        1.59598         7.84510        -0.45487
   C        1.03178         8.18715         0.71306
   C        0.90831         9.59834         1.14157
   O       -0.19910         9.86685         2.00184
   C        0.62607        10.47473         2.99740
   C        1.89810        10.03082         2.26259
   C        2.95600        11.02098         1.89847
   C        3.16199        12.16731         2.64659
   C        4.15382        13.07341         2.28984
   N        4.27069        14.27073         3.07949
   O        3.75130        14.27177         4.17467
   O        4.87384        15.21285         2.60545
   C        4.98008        12.85593         1.17940
   C        4.76112        11.69152         0.44104
   C        3.77478        10.79247         0.79023
   C        6.05836        13.76216         0.81527
   C        6.28990        14.13783        -0.44625
   C        7.32156        15.08826        -0.81626
   C        8.65104        15.01678        -0.35971
   C        9.22630        13.88583         0.40400
   O        8.71018        12.86216         0.73335
   S       10.95885        14.23546         0.75742
   C       10.94234        15.78874        -0.13284
   O       11.88834        16.50487        -0.24517
   C        9.58523        15.99890        -0.68596
   C        9.26913        17.08672        -1.48607
   C        7.97493        17.14147        -1.97956
   C        7.02600        16.17238        -1.66327
   C        5.70030        16.41319        -2.27053
   O        4.70787        15.75719        -2.17379
   S        5.77129        17.91759        -3.25649
   C        7.49402        18.22492        -2.86624
   O        8.11409        19.15680        -3.27502
   H       -0.25654        -2.27835         2.20780
   H       -1.44603         1.24385         5.53564
   H       -2.03047        -0.47668         7.14076
   H       -2.25499        -2.85366         7.74434
   H       -1.66256        -4.60931         6.12195
   H       -0.84379        -4.00320         3.87955
   H       -0.08018         2.23284        -0.47966
   H       -3.16589         6.40431         0.63050
   H       -0.93531         7.27756        -0.49873
   H        1.80090         3.12740        -0.68762
   H        3.97566         4.08952        -1.82630
   H        1.97357         8.61908        -1.11289
   H        0.73245         7.44324         1.43849
   H        0.91956        10.28469         0.28422
   H        0.45804        10.04607         3.98674
   H        0.46647        11.55646         3.02647
   H        2.35597         9.15669         2.73196
   H        2.56189        12.38466         3.51730
   H        5.39963        11.48140        -0.40202
   H        3.64851         9.89792         0.19944
   H        6.65935        14.15957         1.62094
   H        5.61387        13.83746        -1.23439
   H        9.99931        17.84425        -1.72349
*
