# ORCA input file
# SCF done       -208.483733995100          0.000743375798
! CAM-B3LYP def2-SVP def2/J RIJCOSX Grid4 TightSCF
%maxcore 5000
%tddft
    Mode sTDDFT
    Ethresh 5.0
    maxcore 5000
end

%pal
  nprocs 6
  end
* xyz 0 1
   C       -1.62824         0.67510         2.00452
   C       -2.76596         0.76309         2.76100
   C       -3.50401        -0.35295         3.21192
   N       -4.14871        -1.21395         3.61205
   C       -3.36339         1.96206         3.20524
   N       -3.90845         2.89143         3.60161
   C       -1.02779        -0.55793         1.51252
   C        0.13479        -0.23298         0.75536
   C        0.89808        -1.19184         0.15240
   C        0.52260        -2.54744         0.27541
   C       -0.63408        -2.88330         1.03795
   C       -1.40126        -1.86899         1.65485
   C       -0.99698        -4.24030         1.15821
   C       -0.25700        -5.21884         0.55187
   C        0.87907        -4.88656        -0.20152
   C        1.26092        -3.57923        -0.33678
   C        0.32658         1.22020         0.74775
   O        1.28093         1.82805         0.30803
   C       -0.83338         1.78581         1.50089
   C       -1.01302         3.10722         1.76384
   C       -0.30860         4.15670         1.10763
   S        0.12822         5.61607         1.92568
   C        0.99085         6.21623         0.54330
   C        0.85829         5.34889        -0.53241
   C        0.10811         4.20604        -0.21784
   O       -0.31159         3.26077        -1.09348
   C        0.17952         3.06681        -2.32144
   O       -0.22747         2.15532        -2.98388
   C        1.19805         4.02495        -2.92587
   O        1.74586         3.79096        -3.96214
   S        1.47413         5.61060        -2.15594
   C        1.62667         7.48962         0.68964
   N        2.83671         7.90210         0.19225
   C        3.86715         7.10615        -0.43234
   C        4.29148         5.92087         0.42729
   C        3.11843         9.23569         0.57741
   O        4.14727         9.80883         0.28098
   C        1.96837         9.64634         1.34309
   C        1.08763         8.53906         1.41973
   C       -0.09019         8.94483         2.15912
   O       -1.09246         8.34333         2.47710
   N        0.15694        10.29277         2.47694
   C       -0.77592        11.05614         3.27337
   C       -0.33702        11.15158         4.73185
   C        1.37791        10.71960         2.01083
   C        1.87332        12.03026         2.21510
   C        3.10073        12.42191         1.77939
   C        3.66100        13.70646         1.98706
   S        5.25887        14.05612         1.42376
   C        5.24443        15.66288         2.10214
   C        4.00726        15.92121         2.69383
   C        3.13170        14.82988         2.62963
   O        1.87851        14.78971         3.15383
   C        1.20530        15.83243         3.67000
   O        0.12254        15.63538         4.14484
   C        1.78267        17.23736         3.63854
   O        1.10795        18.18948         3.91531
   S        3.50637        17.48362         3.29289
   C        6.39263        16.46862         1.92243
   C        6.85877        17.45621         2.74143
   C        7.98321        18.33623         2.46661
   C        8.56426        18.54786         1.24482
   C        9.64121        19.43345         1.02654
   N       10.52216        20.12972         0.78972
   C        8.14992        17.94094         0.04001
   N        7.85403        17.49704        -0.97654
   C        8.32350        19.02001         3.70733
   C        7.40497        18.61142         4.71776
   C        6.45767        17.64356         4.15444
   O        5.56944        17.05525         4.74291
   C        7.46971        19.09620         5.99259
   C        8.47397        20.03353         6.32171
   C        9.40024        20.44386         5.31910
   C        9.30986        19.92187         4.00797
   C       10.40012        21.37689         5.66044
   C       10.48148        21.88301         6.92955
   C        9.56856        21.47914         7.91506
   C        8.58568        20.57405         7.61758
   H        1.77118        -0.91681        -0.42034
   H       -2.27020        -2.15758         2.22445
   H       -1.87341        -4.49140         1.73733
   H       -0.54409        -6.25509         0.64837
   H        1.44985        -5.67156        -0.67438
   H        2.13386        -3.31692        -0.91613
   H       -1.70592         3.41982         2.53384
   H        4.70992         7.79099        -0.56800
   H        3.53880         6.76734        -1.41754
   H        4.58986         6.25937         1.41695
   H        5.13779         5.42469        -0.03875
   H        3.48730         5.19713         0.53519
   H       -1.72916        10.52421         3.21153
   H       -0.89869        12.05224         2.84058
   H       -0.27002        10.15765         5.16758
   H       -1.06454        11.73091         5.29269
   H        0.63277        11.63620         4.81812
   H        1.24169        12.72241         2.74753
   H        3.72469        11.71826         1.24251
   H        6.98475        16.20378         1.05456
   H        6.76024        18.77186         6.73925
   H       10.02894        20.24823         3.27346
   H       11.10006        21.68624         4.89828
   H       11.25013        22.59828         7.18065
   H        9.64749        21.88842         8.91098
   H        7.87970        20.25939         8.37204
*
