# ORCA input file
# SCF done       -225.016800224243          0.000661643861
! CAM-B3LYP def2-SVP def2/J RIJCOSX Grid4 TightSCF
%maxcore 5000
%tddft
    Mode sTDDFT
    Ethresh 5.0
    maxcore 5000
end

%pal
  nprocs 6
  end
* xyz 0 1
   C       -3.10874         0.95572        -3.29635
   C       -3.62360         1.86953        -2.42018
   C       -4.75527         1.62529        -1.61218
   N       -5.67065         1.47894        -0.93633
   C       -3.04822         3.13126        -2.16761
   N       -2.60242         4.15393        -1.89383
   C       -3.53419        -0.42537        -3.45849
   C       -2.50835        -1.14834        -4.13906
   C       -2.63354        -2.47970        -4.41705
   C       -3.81052        -3.15691        -4.02837
   C       -4.84543        -2.43643        -3.36286
   C       -4.68821        -1.06031        -3.08345
   C       -6.02012        -3.12305        -2.99303
   C       -6.16692        -4.45608        -3.26412
   C       -5.14681        -5.16465        -3.91698
   C       -3.99379        -4.52921        -4.29021
   C       -1.40935        -0.23516        -4.48276
   O       -0.34305        -0.48282        -4.99372
   C       -1.91686         1.12264        -4.11421
   C       -1.38017         2.22013        -4.68027
   C       -1.92341         3.55004        -4.72496
   C       -3.17005         3.94055        -5.17408
   N       -4.22138         3.14244        -5.65818
   O       -5.14960         3.71297        -6.20248
   O       -4.16284         1.92912        -5.50782
   C       -3.23955         5.38534        -5.20441
   C       -2.07806         5.87859        -4.72577
   C       -1.20825         4.78222        -4.37094
   C        0.00490         4.85882        -3.72546
   C        0.97714         3.81892        -3.53391
   C        2.13264         4.37441        -3.09486
   C        1.93894         5.79563        -2.93424
   N        2.90638         6.60567        -2.31489
   O        2.64323         7.77805        -2.08972
   O        3.96052         6.07690        -2.00780
   C        0.63025         6.11342        -3.25994
   C       -0.06344         7.33942        -3.06063
   C        0.40192         8.56247        -3.41757
   C       -0.25613         9.80277        -3.22143
   N       -1.07943        10.16970        -2.18864
   C       -1.23866         9.49710        -0.91652
   C        0.08051         9.42047        -0.15448
   C       -1.58313        11.47894        -2.36501
   O       -2.30530        12.04275        -1.57303
   C       -1.03924        11.89903        -3.63935
   C       -0.20999        10.87531        -4.12070
   C        0.28074        11.27896        -5.42213
   O        1.00093        10.73343        -6.22646
   N       -0.29926        12.55386        -5.63688
   C        0.03327        13.28307        -6.83646
   C        1.07188        14.37108        -6.57327
   C       -1.09637        12.93636        -4.58249
   C       -1.91442        14.06521        -4.38720
   C       -2.11549        15.14252        -5.20483
   C       -2.99766        16.21532        -4.98920
   S       -2.79914        17.59498        -6.03906
   C       -4.04834        18.50668        -5.27130
   C       -4.62994        17.74779        -4.23062
   C       -4.05435        16.44582        -4.08245
   C       -4.61475        15.55792        -3.14445
   C       -5.65558        15.96781        -2.35401
   C       -6.28199        15.02738        -1.35935
   F       -5.77471        13.79243        -1.42442
   F       -6.11840        15.44815        -0.09472
   F       -7.60666        14.90202        -1.55494
   C       -6.18270        17.28178        -2.45390
   C       -7.23415        17.71590        -1.61170
   N       -8.07879        18.11378        -0.94888
   C       -5.67828        18.15273        -3.39559
   C       -4.39831        19.80440        -5.68473
   C       -3.81142        20.44779        -6.73457
   C       -4.12885        21.73495        -7.20683
   S       -3.28639        22.36183        -8.61769
   C       -4.15431        23.87902        -8.62394
   C       -5.04373        23.87739        -7.57146
   C       -5.03350        22.69632        -6.78609
   N       -5.96387        22.86859        -5.79572
   C       -6.56559        24.11630        -5.91701
   O       -7.41770        24.57347        -5.20526
   N       -5.98376        24.71428        -7.01936
   C       -3.86231        24.85072        -9.63545
   C       -4.45915        26.03405        -9.77870
   H       -1.84607        -3.00940        -4.93245
   H       -5.49266        -0.53372        -2.59430
   H       -6.80192        -2.57392        -2.48947
   H       -7.07005        -4.97299        -2.97621
   H       -5.27962        -6.21619        -4.12301
   H       -3.20581        -5.06926        -4.79442
   H       -0.46365         2.06353        -5.24281
   H       -4.09506         5.92376        -5.56396
   H       -1.81377         6.91422        -4.65658
   H        0.82051         2.77816        -3.72980
   H        3.05731         3.87806        -2.86880
   H       -1.05128         7.23554        -2.63178
   H        1.29603         8.63279        -4.02243
   H       -1.66121         8.50126        -1.06109
   H       -1.96171        10.09919        -0.35815
   H        0.83667         8.88666        -0.72568
   H       -0.07493         8.90516         0.78890
   H        0.45093        10.42126         0.05472
   H       -0.87609        13.69101        -7.28541
   H        0.45491        12.54263        -7.52340
   H        0.72891        15.07276        -5.81606
   H        1.27671        14.91504        -7.49126
   H        1.99669        13.91786        -6.22555
   H       -2.42140        14.02678        -3.43463
   H       -1.52939        15.24106        -6.10671
   H       -4.25485        14.54736        -3.05309
   H       -6.10446        19.13979        -3.48170
   H       -5.18667        20.29024        -5.13050
   H       -3.02993        19.93333        -7.27919
   H       -6.20475        22.22993        -5.05843
   H       -6.23556        25.63573        -7.33075
   H       -3.08338        24.55694       -10.32616
   H       -5.24151        26.37492        -9.12406
   H       -4.17480        26.70352       -10.57019
*
