# ORCA input file
# SCF done       -212.011113416524          0.000487532009
! CAM-B3LYP def2-SVP def2/J RIJCOSX Grid4 TightSCF
%maxcore 5000
%tddft
    Mode sTDDFT
    Ethresh 5.0
    maxcore 5000
end

%pal
  nprocs 6
  end
* xyz 0 1
   C        4.58282         3.68121        -1.24873
   C        3.46299         3.08874        -1.76538
   C        3.06811         1.76791        -1.46648
   N        2.70414         0.70136        -1.25151
   C        2.62652         3.71126        -2.71376
   N        1.95151         4.16980        -3.52193
   C        5.61545         3.03509        -0.45448
   C        6.80140         3.82744        -0.51261
   C        7.94646         3.44827         0.12812
   C        7.95472         2.24678         0.87140
   C        6.76785         1.46024         0.94532
   C        5.59757         1.87361         0.26946
   C        6.78875         0.26887         1.69884
   C        7.92600        -0.13024         2.34659
   C        9.09411         0.64346         2.27195
   C        9.10822         1.80599         1.55007
   C        6.54532         5.03737        -1.30949
   O        7.31614         5.90791        -1.63940
   C        5.07739         5.00439        -1.58626
   C        4.42225         6.13396        -1.93264
   C        3.01538         6.39062        -1.89685
   C        2.09270         6.13828        -0.89256
   N        2.28735         5.52163         0.35389
   O        1.35240         5.53441         1.13587
   O        3.37211         5.01132         0.60224
   C        0.82090         6.71535        -1.25608
   C        0.95640         7.34642        -2.44485
   C        2.31139         7.18523        -2.90476
   C        2.82062         7.54388        -4.13628
   C        3.87929         6.88854        -4.82849
   C        3.87139         7.28621        -6.13629
   C        2.85943         8.27424        -6.31920
   N        2.63718         8.92107        -7.53840
   O        3.34217         8.61130        -8.48185
   O        1.74194         9.76324        -7.61251
   C        2.22573         8.50779        -5.08534
   C        1.35130         9.56428        -4.84276
   C        0.99923        10.13379        -3.63952
   C        0.10597        11.19971        -3.55320
   S       -0.31304        11.86721        -1.98779
   C       -1.45829        13.01646        -2.63529
   C       -1.48549        12.90591        -4.04104
   C       -0.61322        11.89888        -4.54063
   N       -0.69772        11.89567        -5.89257
   C       -1.58575        12.87351        -6.27199
   C       -1.89210        13.13648        -7.61686
   N       -2.16489        13.37735        -8.70366
   C       -2.09404        13.51436        -5.15768
   C       -2.16031        13.83755        -1.75320
   C       -3.19687        14.67258        -2.09248
   C       -3.86418        15.48441        -1.16908
   S       -3.34127        15.62623         0.47930
   C       -4.61151        16.73823         0.87548
   C       -5.43642        16.98765        -0.25940
   C       -5.00721        16.28603        -1.42018
   C       -5.70707        16.41889        -2.62354
   C       -6.81760        17.23644        -2.67704
   C       -7.53217        17.37579        -3.89041
   N       -8.09264        17.46952        -4.88472
   C       -7.24890        17.93710        -1.51802
   C       -8.39298        18.76746        -1.60130
   N       -9.31711        19.43988        -1.66954
   C       -6.56645        17.81352        -0.32455
   C       -4.83212        17.33759         2.11816
   C       -4.12600        17.24151         3.29338
   C       -4.44336        17.92896         4.53043
   C       -5.52876        18.73200         4.77883
   C       -5.77672        19.36273         6.01652
   N       -6.03725        19.90323         6.99492
   C       -6.54858        19.03972         3.85549
   N       -7.40810        19.32834         3.14927
   C       -3.39436        17.60501         5.49208
   C       -2.46688        16.71756         4.87171
   C       -2.90154        16.45641         3.49628
   O       -2.35295        15.73475         2.67770
   C       -1.36800        16.24263         5.52849
   C       -1.13781        16.64504         6.86300
   C       -2.05867        17.53291         7.49124
   C       -3.19047        18.00458         6.78572
   C       -1.81755        17.93139         8.82118
   C       -0.71879        17.47690         9.49964
   C        0.18695        16.60326         8.88030
   C       -0.01840        16.19514         7.58975
   H        8.83568         4.05865         0.07184
   H        4.70682         1.27082         0.35294
   H        5.88762        -0.32405         1.75168
   H        7.93210        -1.04476         2.92049
   H        9.98228         0.31401         2.79008
   H       10.00466         2.40572         1.48998
   H        5.04968         6.96844        -2.23541
   H       -0.06151         6.61769        -0.65363
   H        0.17063         7.79411        -3.02038
   H        4.48934         6.11028        -4.41429
   H        4.50418         6.92921        -6.92723
   H        0.98520        10.03679        -5.74035
   H        1.43243         9.77894        -2.71549
   H       -0.18031        11.32710        -6.54843
   H       -2.79710        14.32139        -5.18161
   H       -1.87040        13.78038        -0.71173
   H       -3.53919        14.69316        -3.11587
   H       -5.39419        15.88900        -3.50987
   H       -6.92415        18.35567         0.53794
   H       -5.69417        17.98885         2.13750
   H       -0.68120        15.57075         5.03545
   H       -3.86596        18.67612         7.29094
   H       -2.51770        18.60396         9.29430
   H       -0.54220        17.78902        10.51785
   H        1.04833        16.25500         9.43003
   H        0.67561        15.52225         7.10785
*
