# ORCA input file
# SCF done       -255.031778814379          0.000952381300
! CAM-B3LYP def2-SVP def2/J RIJCOSX Grid4 TightSCF
%maxcore 5000
%tddft
    Mode sTDDFT
    Ethresh 5.0
    maxcore 5000
end

%pal
  nprocs 6
  end
* xyz 0 1
   C       -8.56355         2.32954         2.80011
   C       -9.52266         2.53858         3.75110
   F      -10.01240         3.76669         3.95433
   C      -10.00811         1.46699         4.52902
   F      -10.94685         1.70176         5.45329
   C       -9.52714         0.20102         4.34442
   C       -8.53746        -0.04637         3.37311
   C       -8.04661         1.03584         2.58501
   C       -7.05390         0.81108         1.60469
   C       -6.56801        -0.45705         1.41697
   C       -7.05867        -1.53052         2.21302
   C       -8.01608        -1.34269         3.16883
   C       -6.35721        -2.77712         1.85699
   O       -6.45645        -3.84883         2.40638
   C       -5.39743        -2.39429         0.77662
   C       -5.56698        -0.97878         0.49460
   C       -4.96958        -0.28984        -0.52526
   C       -5.19642         1.07771        -0.79268
   N       -5.34613         2.18462        -1.05421
   C       -4.08665        -0.86580        -1.46503
   N       -3.38285        -1.27635        -2.27291
   C       -4.41861        -3.21002         0.31513
   C       -4.40300        -4.63355         0.48540
   C       -3.19479        -5.31080         0.75997
   C       -3.14415        -6.73093         1.00739
   N       -1.99966        -7.28253         1.44336
   C       -0.93209        -6.53567         1.56950
   C       -0.95866        -5.14494         1.21454
   N       -2.07506        -4.57328         0.84710
   C        0.23402        -4.37796         1.26664
   N        1.21474        -3.79085         1.32765
   C        0.26904        -7.11677         2.05051
   N        1.25635        -7.55219         2.43372
   C       -4.29982        -7.53552         0.88656
   C       -5.47804        -6.86902         0.49295
   C       -5.54279        -5.43626         0.32486
   N       -6.76208        -5.04001        -0.04914
   S       -7.71138        -6.32029        -0.15326
   N       -6.64552        -7.44957         0.20988
   C       -4.42177        -8.92057         1.24542
   N       -3.56656        -9.95071         1.00232
   C       -2.33674        -9.94745         0.24076
   C       -1.13483       -10.25705         1.12708
   C       -4.09902       -11.18664         1.45652
   O       -3.55070       -12.25312         1.30312
   C       -5.36225       -10.82499         2.06204
   C       -5.54435        -9.44237         1.90573
   C       -6.80131        -9.08939         2.54662
   O       -7.35182        -8.03238         2.74672
   N       -7.32963       -10.32776         2.98192
   C       -8.58555       -10.33975         3.69942
   C       -9.78669       -10.37705         2.75787
   C       -6.49097       -11.37051         2.69413
   C       -6.65781       -12.75414         2.91284
   C       -7.83627       -13.41436         3.11970
   C       -7.97097       -14.81483         3.20450
   C       -9.06864       -15.54035         2.74850
   N      -10.28452       -15.04826         2.23741
   O      -11.12434       -15.86524         1.91323
   O      -10.43612       -13.83839         2.14475
   C       -8.75241       -16.93882         2.76313
   C       -7.48514       -17.09962         3.22725
   C       -6.96710       -15.82169         3.62448
   C       -5.90557       -15.58701         4.46845
   C       -5.69435       -14.38802         5.24913
   C       -4.63699       -14.57423         6.06434
   C       -4.10464       -15.90024         5.83192
   N       -2.95539       -16.34684         6.50789
   O       -2.44325       -17.40090         6.17176
   O       -2.54368       -15.64627         7.41928
   C       -4.87002       -16.55229         4.88592
   C       -4.72817       -17.87057         4.32055
   C       -4.49623       -19.03036         4.96575
   C       -4.31532       -19.22393         6.37911
   C       -4.92043       -18.59133         7.40781
   C       -4.26379       -18.53721         8.75180
   O       -3.52329       -19.35020         9.23759
   C       -4.68679       -17.22738         9.29919
   C       -4.20553       -16.55918        10.38726
   C       -4.72388       -15.28014        10.69074
   C       -5.73859       -14.71613         9.86249
   C       -6.24038       -13.43461        10.16794
   C       -5.76138       -12.74675        11.24673
   C       -4.76089       -13.30640        12.06781
   C       -4.25292       -14.54623        11.79673
   F       -4.31327       -12.60919        13.11841
   F       -6.23983       -11.52947        11.53340
   C       -6.22514       -15.43241         8.74742
   C       -5.70207       -16.66718         8.46888
   C       -5.98987       -17.60812         7.39761
   C       -7.12125       -17.68293         6.63494
   C       -7.37875       -18.82034         5.84069
   N       -7.61485       -19.76586         5.23593
   C       -8.10359       -16.67736         6.58087
   N       -8.88630       -15.84682         6.45514
   H       -8.20428         3.16051         2.21336
   H       -9.90777        -0.60775         4.94830
   H       -6.69578         1.65071         1.03101
   H       -8.36904        -2.17369         3.76038
   H       -3.55258        -2.79802        -0.18784
   H       -2.22730        -8.97925        -0.24665
   H       -2.42695       -10.72480        -0.52543
   H       -1.06351        -9.53781         1.93754
   H       -0.22375       -10.21173         0.53776
   H       -1.23138       -11.25537         1.54397
   H       -8.61792        -9.40596         4.27019
   H       -8.59419       -11.17979         4.39608
   H       -9.75738        -9.51490         2.09648
   H      -10.70210       -10.33643         3.34103
   H       -9.80844       -11.27999         2.15308
   H       -5.74710       -13.32493         2.77835
   H       -8.76978       -12.87467         3.05701
   H       -9.43167       -17.70674         2.44469
   H       -6.99909       -18.04096         3.38017
   H       -6.33336       -13.52951         5.22574
   H       -4.21973       -13.89409         6.78163
   H       -4.82735       -17.90284         3.24254
   H       -4.35163       -19.91963         4.36696
   H       -3.53712       -19.92996         6.65020
   H       -3.43185       -16.99395        11.00069
   H       -7.00861       -12.99405         9.55183
   H       -3.48552       -14.95863        12.43258
   H       -6.98329       -14.98599         8.12286
*
