# ORCA input file
# SCF done       -229.211924231409          0.000264864380
! CAM-B3LYP def2-SVP def2/J RIJCOSX Grid4 TightSCF
%maxcore 5000
%tddft
    Mode sTDDFT
    Ethresh 5.0
    maxcore 5000
end

%pal
  nprocs 6
  end
* xyz 0 1
   C       -1.94169         1.74610         8.78493
   C       -1.46756         1.82201        10.06447
   F       -1.23289         3.01416        10.62561
   C       -1.21946         0.65047        10.80886
   F       -0.75406         0.75579        12.05965
   C       -1.44970        -0.58123        10.26295
   C       -1.93786        -0.69244         8.94643
   C       -2.18942         0.49116         8.19276
   C       -2.67966         0.40421         6.86999
   C       -2.91352        -0.82845         6.31835
   C       -2.65519        -2.00466         7.07686
   C       -2.17951        -1.95231         8.35578
   C       -2.95669        -3.19534         6.26087
   O       -2.78461        -4.35231         6.57297
   C       -3.41522        -2.67045         4.94516
   C       -3.41472        -1.22021         5.00499
   C       -3.87699        -0.36913         4.03669
   C       -4.44487        -0.77688         2.81018
   N       -4.93708        -1.03712         1.80659
   C       -3.87587         1.03714         4.15601
   N       -3.89540         2.18372         4.19727
   C       -3.61093        -3.44900         3.84383
   C       -3.73497        -4.86411         3.83382
   C       -3.34874        -5.68570         2.79710
   C       -3.58031        -7.04435         3.17018
   C       -4.23545        -7.00095         4.48566
   C       -4.32337        -5.70194         4.87457
   C       -4.80051        -8.08232         5.17631
   N       -5.32390        -8.93307         5.74210
   C       -3.24026        -8.17680         2.46244
   C       -3.33838        -9.52207         2.90115
   C       -2.93108       -10.36977         1.88251
   C       -2.54913        -9.53855         0.74815
   C       -2.70558        -8.23317         1.09088
   C       -2.41631        -7.14910         0.25367
   N       -2.16379        -6.28397        -0.45802
   C       -2.89888       -11.77914         2.01513
   N       -2.80442       -12.72275         1.02272
   C       -2.82394       -12.52763        -0.40906
   C       -4.16290       -11.98485        -0.89777
   C       -2.83091       -14.03269         1.54228
   O       -2.77782       -15.02740         0.84866
   C       -2.91809       -13.85431         2.97504
   C       -2.96343       -12.47475         3.23481
   C       -2.98312       -12.29086         4.67804
   O       -2.96750       -11.30295         5.37403
   N       -2.98685       -13.60283         5.19056
   C       -3.07168       -13.84074         6.61315
   C       -4.49755       -14.16845         7.04706
   C       -2.95133       -14.54764         4.19987
   C       -2.94632       -15.93414         4.43662
   C       -2.86192       -16.86362         3.43675
   C       -2.85704       -18.25656         3.66469
   C       -3.03659       -18.94323         4.85311
   C       -2.95189       -20.33754         4.60656
   C       -2.68848       -20.48533         3.15929
   C       -2.64214       -19.24449         2.61279
   C       -2.48108       -21.69020         2.47814
   N       -2.30366       -22.67554         1.91413
   C       -3.05951       -21.35931         5.52349
   C       -2.94575       -22.75423         5.26295
   C       -2.96655       -23.44299         6.45595
   C       -3.16193       -22.47412         7.52429
   C       -3.21079       -21.22852         6.98237
   C       -3.36848       -20.03420         7.69341
   N       -3.51161       -19.05946         8.28475
   C       -2.85922       -24.84124         6.66175
   C       -2.34843       -25.78881         5.82952
   C       -2.69790       -27.22032         6.07964
   O       -3.20204       -27.67042         7.08109
   C       -2.34931       -27.92861         4.83428
   C       -2.58549       -29.22894         4.49032
   C       -2.18984       -29.68261         3.21243
   C       -1.56965       -28.77216         2.30737
   C       -1.18931       -29.22867         1.02929
   C       -1.40828       -30.52864         0.66912
   C       -2.01852       -31.42899         1.56619
   C       -2.40233       -31.01614         2.81112
   F       -2.22076       -32.69718         1.18580
   F       -1.04389       -30.96217        -0.54394
   C       -1.33366       -27.43288         2.69311
   C       -1.70482       -27.02186         3.94528
   C       -1.55482       -25.73240         4.61704
   C       -0.63303       -24.78206         4.26772
   C       -0.33964       -23.63193         5.02581
   N       -0.04082       -22.69035         5.61092
   C        0.21255       -24.88783         3.14126
   N        0.93652       -24.93220         2.25283
   H       -2.12692         2.65244         8.22982
   H       -1.25450        -1.46812        10.84520
   H       -2.85307         1.31732         6.32394
   H       -1.99135        -2.86042         8.90814
   H       -3.63722        -2.97718         2.86864
   H       -2.87251        -5.36973         1.88887
   H       -4.80227        -5.33992         5.76310
   H       -3.66436        -9.82219         3.87704
   H       -2.16529        -9.88151        -0.19272
   H       -2.65105       -13.51911        -0.83862
   H       -1.99669       -11.87986        -0.70860
   H       -4.96260       -12.67226        -0.63238
   H       -4.14113       -11.87992        -1.97883
   H       -4.38181       -11.01403        -0.45852
   H       -2.74791       -12.91358         7.09368
   H       -2.38286       -14.64257         6.89074
   H       -5.15666       -13.33540         6.81575
   H       -4.52082       -14.34276         8.11871
   H       -4.86765       -15.05784         6.54175
   H       -3.00033       -16.26636         5.46283
   H       -2.78317       -16.53178         2.40952
   H       -3.22901       -18.51606         5.81674
   H       -2.46287       -19.00023         1.58204
   H       -2.89623       -23.18597         4.28348
   H       -3.22462       -22.72225         8.56766
   H       -3.29102       -25.22722         7.58115
   H       -3.06839       -29.90147         5.18279
   H       -0.71795       -28.55333         0.33255
   H       -2.86870       -31.71720         3.48545
   H       -0.87695       -26.76039         1.98488
*
