# ORCA input file
# SCF done       -192.407296159556          0.000787771909
! CAM-B3LYP def2-SVP def2/J RIJCOSX Grid4 TightSCF
%maxcore 5000
%tddft
    Mode sTDDFT
    Ethresh 5.0
    maxcore 5000
end

%pal
  nprocs 6
  end
* xyz 0 1
   C       -5.97733         6.16929        -7.80319
   C       -6.57786         5.30904        -6.92342
   C       -7.13953         5.76989        -5.71703
   N       -7.57879         6.19713        -4.74942
   C       -6.54419         3.96062        -7.39121
   C       -5.90532         3.88444        -8.62297
   S       -5.35389         5.40535        -9.21314
   S       -5.79444         2.29092        -9.30137
   C       -6.62516         1.70183        -7.89996
   C       -6.97098         2.66943        -6.96385
   C       -7.64556         2.09469        -5.85065
   C       -8.11653         2.82095        -4.74690
   N       -8.50752         3.40083        -3.83738
   C       -7.78876         0.71789        -5.96898
   S       -7.09739         0.10662        -7.45987
   C       -8.38564        -0.20452        -5.06861
   C       -8.44308        -1.57818        -5.24162
   C       -9.08030        -2.21359        -4.17962
   C       -9.51249        -1.31074        -3.18946
   S       -9.13568         0.31214        -3.56519
   C      -10.12869        -2.04491        -2.15016
   C      -10.08971        -3.41645        -2.47847
   C       -9.40368        -3.56599        -3.75468
   C       -9.06751        -4.72536        -4.38684
   C       -8.39413        -4.72389        -5.62769
   N       -7.85006        -4.72375        -6.63703
   C       -9.30497        -6.00347        -3.83379
   N       -9.43775        -7.05103        -3.38905
   C      -10.69051        -4.22468        -1.52202
   C      -11.16992        -3.47798        -0.45049
   S      -10.88098        -1.75350        -0.64714
   C      -11.79388        -3.98473         0.70401
   C      -12.17765        -5.31269         0.94095
   C      -12.72411        -5.50165         2.25567
   N      -13.12098        -6.69756         2.68714
   C      -13.02625        -7.69810         1.83791
   C      -13.44529        -9.03814         2.31952
   O      -13.87333        -9.22429         3.43870
   C      -13.29467       -10.12553         1.33716
   C      -12.87914        -9.93667         0.08054
   C      -12.53049        -8.61685        -0.47612
   O      -12.28162        -8.45028        -1.64970
   C      -12.54007        -7.50137         0.50610
   N      -12.11111        -6.33248         0.08167
   C      -12.78503        -4.32660         3.01255
   S      -12.16283        -2.99667         2.09001
   C      -13.25564        -4.24378         4.33315
   C      -13.38023        -3.11285         5.13089
   C      -13.85569        -3.43374         6.39522
   C      -14.08572        -4.81722         6.55845
   S      -13.73984        -5.72289         5.15195
   C      -14.53594        -5.03731         7.88398
   C      -14.59911        -3.79950         8.55234
   C      -14.18136        -2.75104         7.63738
   C      -14.11151        -1.41240         7.88946
   C      -13.68751        -0.48682         6.91264
   N      -13.34383         0.26291         6.11623
   C      -14.46101        -0.86731         9.14293
   N      -14.74483        -0.42551        10.16220
   C      -15.01594        -3.92182         9.87429
   C      -15.26243        -5.24089        10.22082
   S      -14.98345        -6.34697         8.88302
   C      -15.68336        -5.68984        11.50144
   C      -15.87890        -6.98614        11.96030
   C      -15.67770        -8.12076        11.15995
   N      -15.50615        -9.04110        10.49715
   C      -16.29063        -7.02568        13.32185
   C      -16.39880        -5.74631        13.85458
   S      -16.00870        -4.49340        12.74173
   S      -16.89364        -5.67369        15.51306
   C      -16.95916        -7.40789        15.50636
   C      -16.62119        -8.00890        14.29979
   C      -16.70396        -9.43030        14.40456
   C      -16.43310       -10.36959        13.39076
   N      -16.22351       -11.17608        12.60529
   C      -17.09208        -9.82787        15.65593
   S      -17.37120        -8.52783        16.74781
   H       -5.87021         7.23008        -7.68741
   H       -8.03366        -2.07370        -6.10392
   H      -10.79819        -5.29395        -1.56296
   H      -13.56097       -11.10887         1.70071
   H      -12.79815       -10.76057        -0.61555
   H      -13.12955        -2.12634         4.78387
   H      -15.13223        -3.10544        10.56485
   H      -17.22859       -10.83705        15.99216
*
