# ORCA input file
# SCF done       -252.719482593316          0.000766830286
! CAM-B3LYP def2-SVP def2/J RIJCOSX Grid4 TightSCF
%maxcore 5000
%tddft
    Mode sTDDFT
    Ethresh 5.0
    maxcore 5000
end

%pal
  nprocs 6
  end
* xyz 0 1
   C        3.47721       -12.96990       -11.79430
   S        3.31977       -13.47437       -13.47429
   C        4.36996       -12.14745       -14.04556
   O        4.66477       -11.95335       -15.18721
   N        4.76646       -11.41077       -12.96520
   C        4.33868       -11.78695       -11.70390
   O        4.65027       -11.17006       -10.70965
   C        5.62174       -10.25777       -13.15275
   C        2.78418       -13.63209       -10.83179
   C        2.74452       -13.44069        -9.42658
   C        3.54994       -12.72513        -8.57873
   C        3.14890       -12.77283        -7.22981
   C        3.77703       -12.15274        -6.12320
   C        4.91220       -11.27084        -6.28053
   C        5.16296       -10.36476        -7.27545
   C        6.34923        -9.63515        -7.05568
   C        7.01920        -9.96621        -5.91130
   S        6.17205       -11.21626        -5.07282
   C        8.27464        -9.40040        -5.36093
  Cl        6.89162        -8.41990        -8.14606
   C        3.22096       -12.41079        -4.87760
   C        2.07222       -13.22110        -4.68412
   C        1.44417       -13.84685        -5.78819
   C        2.00233       -13.58935        -7.03677
   S        1.45426       -14.25317        -8.54873
   C        0.30468       -14.72338        -5.64020
   C       -0.75871       -14.87340        -6.48735
   C       -1.66165       -15.86828        -6.06033
   C       -1.30328       -16.49828        -4.90233
   S        0.18221       -15.84323        -4.30762
   C       -2.00365       -17.59427        -4.18695
  Cl       -3.09421       -16.24803        -6.93578
   C        1.66572       -13.22988        -3.33620
   C        2.47203       -12.47907        -2.51159
   S        3.78383       -11.72440        -3.37537
   C        2.32365       -12.26717        -1.11254
   C        3.24753       -11.45607        -0.41967
   C        3.12770       -11.17038         0.98383
   N        4.04039       -10.39152         1.57828
   C        5.03486        -9.89477         0.88212
   C        5.15046       -10.17378        -0.51796
   N        4.26342       -10.93377        -1.11385
   C        6.21440        -9.65061        -1.29301
   N        7.07999        -9.22307        -1.91023
   C        5.99942        -9.08582         1.53242
   N        6.80288        -8.43301         2.02265
   C        2.06903       -11.67782         1.76596
   C        1.15533       -12.51663         1.08688
   C        1.28060       -12.80716        -0.32799
   N        0.30514       -13.61102        -0.75192
   S       -0.66084       -13.96736         0.47887
   N        0.09436       -13.12562         1.61716
   C        1.94761       -11.31499         3.13697
   C        0.96761       -11.71479         4.01543
   C        1.08147       -11.13728         5.29350
   C        0.26049       -11.35980         6.42431
   C       -0.91209       -12.20432         6.38483
   C       -1.38665       -13.02490         7.37114
   C       -2.59169       -13.66537         7.01754
   C       -3.06198       -13.33887         5.77692
   S       -1.98817       -12.22114         5.01129
   C       -4.29898       -13.80632         5.10260
  Cl       -3.39367       -14.76645         8.06868
   C        0.63197       -10.69969         7.59205
   C        1.75936        -9.83735         7.67928
   C        2.58591        -9.62995         6.54800
   C        2.21025       -10.28049         5.38113
   S        3.08228       -10.21127         3.86845
   C        3.76557        -8.79517         6.58700
   C        4.24383        -7.97679         5.60002
   C        5.45712        -7.35143         5.94927
   C        5.92829        -7.69003         7.18726
   S        4.84687        -8.79631         7.95391
   C        7.16858        -7.23434         7.86260
  Cl        6.26651        -6.26368         4.89165
   C        1.86253        -9.21913         8.93845
   C        0.87345        -9.58163         9.82041
   S       -0.23885       -10.73895         9.09393
   C        0.59673        -9.21286        11.15798
   C        1.20870        -8.33849        12.00924
   C        0.75278        -8.09994        13.37465
   C       -0.25818        -8.73909        14.04161
   C       -0.63605        -8.44961        15.37158
   N       -1.00280        -8.27475        16.44519
   C       -1.07747        -9.77992        13.55148
   N       -1.79184       -10.63128        13.26076
   C        1.59111        -7.04958        13.94735
   C        2.55416        -6.67270        12.99652
   C        2.37726        -7.45150        11.76174
   O        3.06333        -7.35629        10.76505
   C        3.49307        -5.69674        13.27118
   C        3.46595        -5.08875        14.51569
   C        2.51767        -5.44463        15.47245
   C        1.57407        -6.43117        15.18581
   C        2.48537        -4.76347        16.80307
   H        6.51569       -10.54820       -13.70413
   H        5.88707        -9.88509       -12.16450
   H        5.09272        -9.48723       -13.71451
   H        2.13440       -14.42251       -11.19056
   H        4.42263       -12.20453        -8.91809
   H        4.51856       -10.18274        -8.11522
   H        8.53864        -8.49398        -5.90002
   H        9.09270       -10.11471        -5.45616
   H        8.15045        -9.17140        -4.30358
   H       -0.92253       -14.27478        -7.36365
   H       -1.48031       -18.54030        -4.32972
   H       -3.01500       -17.69673        -4.57281
   H       -2.04426       -17.39107        -3.11847
   H        0.80099       -13.74199        -2.95838
   H        0.20670       -12.41294         3.72299
   H       -0.88339       -13.20403         8.30282
   H       -4.66869       -14.70223         5.59565
   H       -4.10627       -14.02385         4.05394
   H       -5.07414       -13.04058         5.15153
   H        3.73749        -7.78732         4.67234
   H        7.90903        -8.03454         7.88670
   H        6.95725        -6.94007         8.88909
   H        7.58793        -6.38870         7.32307
   H        2.62394        -8.50892         9.20049
   H       -0.27085        -9.72818        11.55324
   H        4.22403        -5.42548        12.52507
   H        4.19123        -4.32415        14.75258
   H        0.84671        -6.69255        15.93692
   H        3.43703        -4.28729        17.02415
   H        2.24760        -5.47230        17.59299
   H        1.71138        -3.99537        16.80409
*
