# ORCA input file
# SCF done       -203.624425541231          0.000806133209
! CAM-B3LYP def2-SVP def2/J RIJCOSX Grid4 TightSCF
%maxcore 5000
%tddft
    Mode sTDDFT
    Ethresh 5.0
    maxcore 5000
end

%pal
  nprocs 6
  end
* xyz 0 1
   C       -4.69250        -8.37379         7.83608
   C       -3.42253        -8.39635         7.27794
   C       -3.22914        -8.45549         5.85396
   N       -1.97759        -8.47463         5.35155
   C       -0.97048        -8.43958         6.16099
   C       -1.16351        -8.38139         7.57263
   N       -2.33926        -8.36098         8.09840
   F       -0.11212        -8.34636         8.38578
   F        0.25160        -8.45925         5.63811
   C       -4.31044        -8.49407         4.94596
   C       -5.59931        -8.47163         5.52734
   C       -5.77615        -8.41135         6.96494
   N       -7.07264        -8.39770         7.30138
   S       -7.95768        -8.45388         5.97212
   N       -6.77338        -8.49869         4.89350
   C       -4.10007        -8.54704         3.54017
   C       -5.08258        -8.58573         2.55737
   C       -4.54090        -8.62282         1.28135
   C       -3.12626        -8.61333         1.28681
   S       -2.47863        -8.56012         2.86727
   C       -2.67347        -8.64095        -0.05068
   C       -3.80053        -8.66848        -0.90498
   C       -5.00710        -8.65867        -0.09353
   C       -6.29893        -8.67318        -0.53213
   C       -6.62701        -8.70213        -1.90423
   N       -6.90483        -8.72554        -3.01666
   C       -7.39569        -8.65812         0.35549
   N       -8.29466        -8.64388         1.06702
   C       -3.45849        -8.68443        -2.24700
   C       -2.07852        -8.66600        -2.43472
   S       -1.19889        -8.63632        -0.91525
   C       -1.39523        -8.64792        -3.67738
   C        0.01562        -8.60630        -3.74926
   C        0.72309        -8.54401        -4.99375
   N        2.06969        -8.50317        -4.98468
   C        2.70578        -8.52085        -3.85752
   C        2.00512        -8.57894        -2.62500
   N        0.71170        -8.61892        -2.59584
   F        2.65516        -8.59433        -1.46668
   F        4.03320        -8.48414        -3.89060
   C        0.06341        -8.51747        -6.24330
   C       -1.35040        -8.58810        -6.18189
   C       -2.06404        -8.65231        -4.92645
   N       -3.38231        -8.70823        -5.11883
   S       -3.69859        -8.68488        -6.68938
   N       -2.18867        -8.60051        -7.21877
   C        0.77962        -8.41208        -7.46282
   C        0.23391        -8.36328        -8.74322
   C        1.20842        -8.23367        -9.71872
   C        2.51761        -8.18324        -9.18534
   S        2.53202        -8.30048        -7.47993
   C        3.43097        -8.04334       -10.25370
   C        2.70089        -8.00553       -11.46488
   C        1.28474        -8.12436       -11.16655
   C        0.24726        -8.12864       -12.05261
   C        0.44613        -8.01598       -13.44499
   N        0.59607        -7.92566       -14.57814
   C       -1.09619        -8.24401       -11.63697
   N       -2.19129        -8.33643       -11.30955
   C        3.51495        -7.86257       -12.57825
   C        4.86007        -7.78926       -12.23503
   S        5.11588        -7.90047       -10.50170
   C        5.95458        -7.64021       -13.13119
   C        7.28646        -7.56904       -12.66634
   C        8.40486        -7.41935       -13.55807
   N        9.66313        -7.35694       -13.04723
   C        9.81737        -7.43316       -11.77078
   C        8.70918        -7.58061       -10.88556
   N        7.49956        -7.64441       -11.33661
   F        8.88992        -7.65604        -9.57069
   F       11.05296        -7.37042       -11.28354
   C        8.22991        -7.33661       -14.93185
   C        6.92813        -7.40224       -15.41737
   C        5.78956        -7.55270       -14.53296
   N        4.64426        -7.59169       -15.21698
   S        4.95822        -7.45563       -16.78241
   N        6.54974        -7.33963       -16.70084
   H       -4.82451        -8.32856         8.90273
   H       -6.12957        -8.58281         2.79911
   H       -4.14388        -8.70389        -3.07405
   H       -0.82561        -8.41982        -8.91165
   H        3.18452        -7.80969       -13.59935
   H        9.07446        -7.22561       -15.58872
*
