# ORCA input file
# SCF done       -279.944044501788          0.000974311663
! CAM-B3LYP def2-SVP def2/J RIJCOSX Grid4 TightSCF
%maxcore 5000
%tddft
    Mode sTDDFT
    Ethresh 5.0
    maxcore 5000
end

%pal
  nprocs 6
  end
* xyz 0 1
   C       -3.53081         2.07625        -0.23112
   C       -2.30498         2.58062         0.10125
   F       -1.99130         3.84552        -0.20681
   C       -1.35678         1.77986         0.76962
   F       -0.16289         2.30068         1.08199
   C       -1.64812         0.48528         1.09691
   C       -2.90269        -0.06355         0.76768
   C       -3.86217         0.74478         0.09154
   C       -5.12702         0.21549        -0.25206
   C       -5.42341        -1.08359         0.06830
   C       -4.45773        -1.88277         0.74110
   C       -3.22960        -1.39941         1.08947
   C       -5.00800        -3.23366         0.95467
   O       -4.45763        -4.15198         1.52833
   C       -6.34444        -3.23058         0.33195
   C       -6.61858        -1.89126        -0.16190
   C       -7.78267        -1.43389        -0.72149
   C       -8.95789        -2.18896        -0.92224
   N       -9.95416        -2.72682        -1.11657
   C       -7.97558        -0.10950        -1.17005
   N       -8.19776         0.94859        -1.55514
   C       -7.16396        -4.31389         0.18298
   C       -6.99419        -5.65676         0.58089
   C       -7.93019        -6.62433         0.26172
   C       -7.59668        -7.91338         0.70240
   C       -8.29582        -9.12221         0.46427
   C       -9.60528        -9.11481        -0.14743
   C      -10.62492        -8.23207         0.07997
   C      -11.77811        -8.52342        -0.67793
   C      -11.65724        -9.61474        -1.49057
   S      -10.08574       -10.31707        -1.31434
   C      -12.65521       -10.19061        -2.42564
  Cl      -13.21151        -7.57514        -0.57264
   C       -7.65068       -10.28603         0.85695
   C       -6.40693       -10.30095         1.54265
   C       -5.74230        -9.09322         1.83224
   C       -6.35135        -7.92123         1.38385
   S       -5.65258        -6.33009         1.48150
   C       -4.47622        -9.03278         2.53361
   C       -4.07432        -8.08701         3.43443
   C       -2.75698        -8.29448         3.89453
   C       -2.13096        -9.37805         3.34981
   S       -3.19382       -10.17850         2.24485
   C       -0.75906        -9.88625         3.59995
  Cl       -2.01480        -7.25619         5.04843
   C       -6.00556       -11.62070         1.86852
   C       -6.86390       -12.58364         1.42888
   S       -8.25587       -11.89800         0.61425
   C       -6.73034       -14.02084         1.50343
   C       -7.45650       -14.83947         0.63454
   C       -7.29541       -16.20546         0.64361
   F       -8.02258       -16.92664        -0.22932
   C       -6.42422       -16.85827         1.52357
   C       -5.72211       -16.04418         2.41612
   C       -5.87186       -14.67541         2.39652
   F       -5.15574       -13.96445         3.28817
   C       -6.23451       -18.29333         1.51315
   C       -5.81686       -19.07970         2.54692
   C       -5.70325       -20.45010         2.20879
   C       -5.34605       -21.52640         3.04609
   C       -5.04534       -21.34377         4.45262
   C       -5.69766       -20.58103         5.37832
   C       -5.09722       -20.64689         6.65432
   C       -3.99002       -21.44365         6.71812
   S       -3.67137       -22.14444         5.17103
   C       -3.11289       -21.72289         7.88289
  Cl       -5.71772       -19.79491         8.01643
   C       -5.26813       -22.77328         2.44253
   C       -5.50879       -23.00244         1.06348
   C       -5.90124       -21.93125         0.23294
   C       -5.99152       -20.68040         0.84041
   S       -6.48915       -19.21443         0.05121
   C       -6.21032       -22.10258        -1.16987
   C       -5.94596       -21.24281        -2.19922
   C       -6.43296       -21.70692        -3.43897
   C       -7.08349       -22.90614        -3.37873
   S       -7.08743       -23.49380        -1.75218
   C       -7.71545       -23.67886        -4.47674
  Cl       -6.21944       -20.82007        -4.89816
   C       -5.27817       -24.35111         0.71367
   C       -4.89381       -25.14310         1.76536
   S       -4.87186       -24.24688         3.27156
   C       -4.61679       -26.53362         1.70028
   C       -4.00754       -27.32102         2.62446
   C       -4.22879       -28.79370         2.60385
   O       -4.65710       -29.45315         1.68664
   C       -3.88029       -29.24822         3.96703
   C       -4.02369       -30.48854         4.51876
   C       -3.64993       -30.68848         5.86664
   C       -3.13629       -29.59342         6.62113
   C       -2.77502       -29.79965         7.96783
   C       -2.91280       -31.03426         8.53713
   C       -3.41740       -32.11705         7.78912
   C       -3.77859       -31.94907         6.48184
   F       -3.54148       -33.31643         8.37328
   F       -2.56834       -31.22757         9.81705
   C       -2.98778       -28.32258         6.02034
   C       -3.35007       -28.15435         4.71091
   C       -3.26412       -26.99710         3.82672
   C       -2.42075       -25.93047         3.98611
   C       -2.10933       -25.04198         2.93290
   N       -1.77896       -24.35713         2.07349
   C       -1.72968       -25.64741         5.17989
   N       -1.18048       -25.35291         6.14413
   H       -4.24505         2.70276        -0.74225
   H       -0.91171        -0.11467         1.60824
   H       -5.82772         0.85337        -0.76555
   H       -2.51719        -2.02949         1.59989
   H       -8.09541        -4.15207        -0.34651
   H       -8.80897        -6.39854        -0.31518
   H      -10.58014        -7.43183         0.79521
   H      -13.61859        -9.71011        -2.27434
   H      -12.75932       -11.26209        -2.26335
   H      -12.34589       -10.03637        -3.45953
   H       -4.69617        -7.28725         3.79024
   H       -0.27878        -9.27975         4.36367
   H       -0.16172        -9.84596         2.68929
   H       -0.78948       -10.92232         3.93515
   H       -5.09844       -11.84120         2.39693
   H       -8.14330       -14.40092        -0.07263
   H       -5.03008       -16.47797         3.11953
   H       -5.60329       -18.70153         3.52898
   H       -6.59820       -20.02950         5.17993
   H       -2.38763       -20.91888         8.01538
   H       -2.56912       -22.65247         7.73411
   H       -3.70899       -21.79141         8.79118
   H       -5.38963       -20.33000        -2.09786
   H       -7.64631       -23.11750        -5.40501
   H       -8.76419       -23.87371        -4.25586
   H       -7.21682       -24.63914        -4.60698
   H       -5.34373       -24.72993        -0.28967
   H       -5.01939       -27.05112         0.83511
   H       -4.41781       -31.30675         3.93545
   H       -2.38381       -28.98268         8.55374
   H       -4.16362       -32.78757         5.92293
   H       -2.60053       -27.50769         6.61137
*
