# ORCA input file
# SCF done       -233.447272576603          0.000556502733
! CAM-B3LYP def2-SVP def2/J RIJCOSX Grid4 TightSCF
%maxcore 5000
%tddft
    Mode sTDDFT
    Ethresh 5.0
    maxcore 5000
end

%pal
  nprocs 6
  end
* xyz 0 1
   C       -2.70621         2.84938         1.70082
   C       -3.77728         3.65804         1.44234
   F       -3.74832         4.94834         1.79870
   C       -4.92226         3.14766         0.79802
   F       -5.95695         3.96309         0.55576
   C       -4.98043         1.83500         0.42159
   C       -3.89293         0.97646         0.67373
   C       -2.73364         1.49192         1.32307
   C       -1.62651         0.65073         1.57793
   C       -1.67843        -0.66248         1.19245
   C       -2.84367        -1.17249         0.55288
   C       -3.92799        -0.38439         0.29534
   C       -2.65168        -2.60385         0.24332
   O       -3.44892        -3.33831        -0.30647
   C       -1.32498        -2.95078         0.80056
   C       -0.70136        -1.73929         1.29539
   C        0.60972        -1.61499         1.66934
   C        1.18789        -0.41196         2.12349
   N        1.69830         0.54288         2.50418
   C        1.55248        -2.66061         1.56873
   N        2.37115        -3.45660         1.45232
   C       -0.89278        -4.22598         1.03486
   C       -1.51321        -5.41656         0.55515
   C       -2.11727        -5.60282        -0.69392
   O       -1.81813        -4.91034        -1.80604
   C       -0.69540        -4.07212        -1.88486
   C       -3.01112        -6.71310        -0.92404
   O       -3.82986        -6.78085        -1.98735
   C       -4.21924        -5.60831        -2.68152
   C       -3.05987        -7.77966        -0.03622
   C       -2.29684        -7.70208         1.15388
   C       -1.56064        -6.51494         1.46344
   N       -0.96035        -6.58598         2.64480
   S       -1.26311        -8.03402         3.29024
   N       -2.17911        -8.62409         2.10497
   C       -3.84865        -8.97246        -0.30978
   C       -4.67430        -9.54133         0.67399
   C       -5.38474       -10.77816         0.44885
   N       -6.04530       -11.35973         1.46829
   C       -6.11450       -10.74478         2.61521
   C       -5.53840        -9.43436         2.78721
   N       -4.83579        -8.88448         1.83714
   C       -5.73274        -8.72774         4.00039
   N       -5.90090        -8.18827         4.99684
   C       -6.80745       -11.36061         3.68785
   N       -7.39159       -11.81885         4.56003
   C       -5.37108       -11.41838        -0.79901
   C       -4.57843       -10.83148        -1.79198
   C       -3.79781        -9.63705        -1.54023
   N       -3.06046        -9.29896        -2.60566
   S       -3.36369       -10.32637        -3.78828
   N       -4.41603       -11.26951        -3.04741
   C       -6.08182       -12.66786        -1.04932
   C       -7.42574       -12.83271        -0.73016
   O       -8.04711       -11.72318        -0.27680
   C       -9.17797       -11.78375         0.57368
   C       -8.08749       -14.07706        -0.99403
   O       -9.38860       -14.15834        -0.62473
   C       -9.88399       -15.34073        -0.00986
   C       -7.43268       -15.14105        -1.62015
   C       -6.05305       -14.98542        -1.90932
   C       -5.38514       -13.74813        -1.62734
   N       -4.09620       -13.78770        -1.95829
   S       -3.76913       -15.22016        -2.60230
   N       -5.24059       -15.87131        -2.47995
   C       -8.15890       -16.27605        -2.12290
   C       -7.72490       -17.53571        -2.36914
   C       -8.48559       -18.39849        -3.31716
   O       -9.60680       -18.20973        -3.72742
   C       -7.55566       -19.48936        -3.67304
   C       -7.70713       -20.47598        -4.60426
   C       -6.65894       -21.40327        -4.79904
   C       -5.46918       -21.28847        -4.02205
   C       -4.42551       -22.21332        -4.22793
   C       -4.55693       -23.20507        -5.15885
   C       -5.73418       -23.31797        -5.92572
   C       -6.76410       -22.43694        -5.75009
   F       -5.83473       -24.29903        -6.83254
   F       -3.56365       -24.08236        -5.35289
   C       -5.34404       -20.26175        -3.05861
   C       -6.37430       -19.37654        -2.88433
   C       -6.53204       -18.25302        -1.96898
   C       -5.81635       -18.03984        -0.82221
   C       -6.20676       -17.08173         0.13314
   N       -6.55164       -16.33958         0.93832
   C       -4.67774       -18.78155        -0.45207
   N       -3.73379       -19.34658        -0.12521
   H       -1.83682         3.25622         2.19324
   H       -5.86461         1.45996        -0.06966
   H       -0.76479         1.06442         2.07675
   H       -4.80013        -0.79175        -0.19325
   H       -0.11997        -4.38851         1.77656
   H       -0.93528        -3.04732        -1.58087
   H       -0.40451        -4.07114        -2.93623
   H        0.13124        -4.43741        -1.26860
   H       -4.31241        -4.75548        -2.00861
   H       -5.19083        -5.84308        -3.11723
   H       -3.51221        -5.37099        -3.47873
   H       -9.02201       -12.48721         1.39359
   H      -10.08508       -12.04247         0.02543
   H       -9.27544       -10.77660         0.98011
   H      -10.41824       -15.02226         0.88841
   H       -9.07415       -16.01342         0.27374
   H      -10.58237       -15.85445        -0.67233
   H       -9.16096       -16.06348        -2.48320
   H       -8.61301       -20.54762        -5.18686
   H       -3.51886       -22.14331        -3.64752
   H       -7.65845       -22.53675        -6.34501
   H       -4.43170       -20.19108        -2.48798
*
