# ORCA input file
# SCF done       -194.326498300117          0.000657862997
! CAM-B3LYP def2-SVP def2/J RIJCOSX Grid4 TightSCF
%maxcore 5000
%tddft
    Mode sTDDFT
    Ethresh 5.0
    maxcore 5000
end

%pal
  nprocs 6
  end
* xyz 0 1
   C        2.33359         0.59720        -0.58200
   C        3.67767         0.74526        -0.79644
   C        4.58911        -0.33016        -0.84809
   N        5.37811        -1.16270        -0.89534
   C        4.32616         1.97471        -1.04254
   N        4.92223         2.92574        -1.28468
   C        1.62420        -0.66701        -0.44610
   C        0.22648        -0.39820        -0.43054
   C       -0.69948        -1.39497        -0.31823
   C       -0.26055        -2.73344        -0.21374
   C        1.13718        -3.01107        -0.22237
   C        2.07240        -1.95744        -0.33956
   C        1.56294        -4.35071        -0.11319
   C        0.65420        -5.36758        -0.00231
   C       -0.72160        -5.09284         0.00548
   C       -1.16913        -3.80388        -0.09859
   C       -0.00629         1.05211        -0.55186
   O       -1.08590         1.60012        -0.58996
   C        1.35042         1.67044        -0.54912
   C        1.64083         2.97556        -0.30262
   C        0.74884         4.09516        -0.28916
   C       -0.38233         4.24370        -1.08498
   C       -1.22405         5.34841        -0.99076
   C       -1.01243         6.39046        -0.09545
   C        0.17908         6.31741         0.66073
   C        1.04389         5.18804         0.55904
   N        2.07351         5.39551         1.39173
   N        1.83408         6.56724         1.91228
   N        0.74724         7.17095         1.52749
   C        2.70446         7.14127         2.89118
   C       -1.97468         7.45813         0.07997
   C       -2.19540         8.04773         1.34118
   C       -3.12347         9.13840         1.53211
   N       -3.17292         9.76384         2.72370
   C       -2.43693         9.33074         3.71037
   C       -1.65997         8.12717         3.56599
   N       -1.56719         7.53241         2.41008
   C       -0.94725         7.58040         4.66092
   N       -0.32731         7.17616         5.53571
   C       -2.42915        10.03232         4.94133
   N       -2.39320        10.56146         5.95676
   C       -3.94209         9.60484         0.48781
   C       -3.75882         8.98766        -0.75990
   C       -2.78041         7.93895        -0.96608
   N       -2.77895         7.51686        -2.23641
   S       -3.89622         8.31846        -3.05420
   N       -4.44643         9.24438        -1.87772
   C       -4.93370        10.64458         0.67455
   C       -5.73877        10.71088         1.80308
   C       -6.77931        11.62777         1.94139
   C       -7.09021        12.55833         0.95695
   C       -6.22013        12.57805        -0.15916
   C       -5.16630        11.62885        -0.30952
   N       -4.52193        11.92925        -1.44750
   N       -5.16631        12.95756        -1.91985
   N       -6.18112        13.39102        -1.22303
   C       -4.78233        13.58076        -3.14852
   C       -8.15824        13.51134         1.00422
   C       -9.37616        13.38760         1.59488
   C      -10.39337        14.42974         1.62206
   C      -10.18497        15.76724         1.41612
   C      -11.20490        16.74044         1.47401
   N      -11.99406        17.57388         1.49488
   C       -8.93398        16.36722         1.15547
   N       -7.95686        16.93964         0.96572
   C      -11.66006        13.81218         1.98997
   C      -11.42636        12.43580         2.26708
   C       -9.99915        12.12234         2.07870
   O       -9.48108        11.03833         2.23421
   C      -12.43148        11.59365         2.64687
   C      -13.74421        12.10005         2.76922
   C      -13.98906        13.47511         2.48648
   C      -12.92756        14.32257         2.09485
   C      -15.30454        13.96808         2.60673
   C      -16.32850        13.14522         2.98947
   C      -16.08563        11.79194         3.26900
   C      -14.82090        11.28065         3.16159
   H       -1.75448        -1.16407        -0.30997
   H        3.12380        -2.19790        -0.33467
   H        2.62302        -4.55769        -0.12095
   H        0.99050        -6.39025         0.08013
   H       -1.42474        -5.90742         0.09478
   H       -2.22713        -3.58568        -0.09296
   H        2.65286         3.22617        -0.00485
   H       -0.62147         3.48129        -1.80677
   H       -2.10135         5.37921        -1.61654
   H        3.63290         6.57521         2.89307
   H        2.23756         7.08988         3.87723
   H        2.89123         8.18568         2.64505
   H       -5.58229         9.99525         2.59438
   H       -7.35491        11.61008         2.85121
   H       -3.79857        13.20912        -3.42477
   H       -4.76176        14.66158        -3.01414
   H       -5.50200        13.33830        -3.93220
   H       -7.96049        14.40546         0.42382
   H      -12.22564        10.55368         2.85295
   H      -13.14648        15.35669         1.88111
   H      -15.48667        15.01090         2.39217
   H      -17.33224        13.53268         3.07953
   H      -16.90556        11.15691         3.56958
   H      -14.62718        10.23962         3.37538
*
