# ORCA input file
# SCF done       -210.007764127833          0.000562182693
! CAM-B3LYP def2-SVP def2/J RIJCOSX Grid4 TightSCF
%maxcore 5000
%tddft
    Mode sTDDFT
    Ethresh 5.0
    maxcore 5000
end

%pal
  nprocs 6
  end
* xyz 0 1
   C        3.20469         2.94853         2.02548
   C        4.43999         3.44207         1.69225
   C        5.53174         3.50340         2.58364
   N        6.45910         3.57363         3.25679
   C        4.79729         3.97640         0.43615
   N        5.17098         4.44358        -0.54392
   C        2.80960         2.47185         3.34553
   C        1.42605         2.13783         3.31178
   C        0.76938         1.66821         4.41239
   C        1.47898         1.51131         5.62389
   C        2.86576         1.83607         5.66476
   C        3.51958         2.31728         4.50730
   C        3.56657         1.66821         6.87651
   C        2.92973         1.20404         7.99512
   C        1.56391         0.88620         7.95403
   C        0.85389         1.03717         6.79385
   C        0.89330         2.36452         1.95714
   O       -0.21886         2.08989         1.56740
   C        2.04197         2.88351         1.15932
   C        2.02997         3.08828        -0.18856
   C        0.88956         3.19829        -1.01983
   C       -0.42116         3.65576        -0.74667
   C       -1.13111         3.60582        -1.96802
   C       -0.17324         3.16013        -2.93179
   N        1.00680         2.93280        -2.35162
   O       -0.37208         3.03176        -4.22172
   C        0.73051         2.55614        -4.97741
   C       -2.42790         4.11289        -1.69134
   N       -2.49473         4.51178        -0.39189
   C       -1.31922         4.27288         0.18427
   O       -1.03794         4.59903         1.41775
   C       -2.08265         5.21613         2.15590
   C       -3.55720         4.24885        -2.53411
   C       -4.58813         5.15835        -2.18358
   C       -5.83524         5.20259        -2.90668
   N       -6.77692         6.07314        -2.53977
   C       -6.61663         6.78546        -1.45229
   C       -5.37536         6.74769        -0.73933
   N       -4.39079         5.99504        -1.16390
   C       -5.15951         7.59147         0.37766
   N       -5.01195         8.25513         1.29965
   C       -7.65409         7.66220        -1.05038
   N       -8.49456         8.35366        -0.69286
   C       -6.08683         4.34512        -4.00804
   C       -5.03468         3.48866        -4.39828
   C       -3.78563         3.43836        -3.66727
   N       -2.99053         2.47454        -4.12066
   S       -3.71112         1.73287        -5.34674
   N       -5.08535         2.56012        -5.34815
   C       -7.38307         4.29252        -4.57525
   C       -7.80386         3.85642        -5.85853
   C       -9.21344         3.95786        -5.86375
   C       -9.55368         4.53264        -4.59589
   N       -8.46223         4.70284        -3.85418
   O      -10.75341         4.88035        -4.21217
   C      -10.85509         5.45017        -2.91518
   C       -9.64400         3.57198        -7.15435
   N       -8.55791         3.30284        -7.93224
   C       -7.46036         3.45689        -7.18805
   O       -6.24717         3.30477        -7.66213
   C       -6.15476         2.88877        -9.01547
   C      -10.94218         3.53134        -7.71868
   C      -12.10825         3.31097        -7.04792
   C      -13.44791         3.43912        -7.59054
   C      -13.78952         4.05545        -8.76682
   C      -15.11425         4.18270        -9.23457
   N      -16.16798         4.31302        -9.67124
   C      -12.88414         4.67124        -9.65681
   N      -12.22266         5.21134       -10.42442
   C      -14.38208         2.87892        -6.62167
   C      -13.64683         2.44666        -5.48172
   C      -12.21010         2.69372        -5.69288
   O      -11.31007         2.37023        -4.95180
   C      -14.25772         1.88077        -4.40016
   C      -15.66127         1.72086        -4.40678
   C      -16.40443         2.14450        -5.54641
   C      -15.74316         2.72442        -6.65344
   C      -17.80379         1.97330        -5.54556
   C      -18.44000         1.41271        -4.47160
   C      -17.70723         0.99693        -3.34980
   C      -16.34750         1.14842        -3.31785
   H       -0.28057         1.42100         4.35914
   H        4.57121         2.54738         4.57010
   H        4.61768         1.91526         6.90363
   H        3.47514         1.07919         8.91848
   H        1.07745         0.52065         8.84597
   H       -0.19779         0.79330         6.75593
   H        2.96815         3.15510        -0.72614
   H        1.61520         3.16579        -4.78488
   H        0.43428         2.62142        -6.02209
   H        0.95591         1.52247        -4.70847
   H       -1.65018         5.50777         3.11040
   H       -2.90046         4.50949         2.30659
   H       -2.46758         6.08658         1.62130
   H      -10.59534         4.70675        -2.15972
   H      -11.89012         5.76453        -2.80092
   H      -10.17749         6.30023        -2.81578
   H       -5.09839         2.92287        -9.27296
   H       -6.73356         3.55425        -9.65859
   H       -6.54243         1.87440        -9.12677
   H      -10.95988         3.66463        -8.79368
   H      -13.67598         1.56006        -3.54868
   H      -16.33333         3.02665        -7.50391
   H      -18.36398         2.29570        -6.41092
   H      -19.51216         1.28629        -4.48049
   H      -18.22536         0.55568        -2.51155
   H      -15.77773         0.82975        -2.45719
*
