# ORCA input file
# SCF done       -271.477578485956          0.000401442663
! CAM-B3LYP def2-SVP def2/J RIJCOSX Grid4 TightSCF
%maxcore 5000
%tddft
    Mode sTDDFT
    Ethresh 5.0
    maxcore 5000
end

%pal
  nprocs 6
  end
* xyz 0 1
   C        1.73938         0.49272         0.99891
   C        2.58946         0.24847        -0.04815
   C        3.21989        -0.99270        -0.28091
   N        3.76680        -1.97088        -0.52973
   C        2.97331         1.17344        -1.04177
   N        3.33919         1.85732        -1.88934
   C        1.36587        -0.47861         2.02152
   C        0.49336         0.15319         2.95297
   C       -0.02358        -0.51048         4.02792
   C        0.31212        -1.86843         4.22410
   C        1.18170        -2.51078         3.29601
   C        1.70349        -1.79535         2.19379
   C        1.50804        -3.86716         3.49890
   C        1.00122        -4.55703         4.56648
   C        0.14590        -3.92312         5.48007
   C       -0.19133        -2.60735         5.31256
   C        0.27813         1.54968         2.54747
   O       -0.40024         2.37388         3.12936
   C        1.05456         1.73927         1.30606
   C        1.11273         2.88191         0.56232
   C        0.47789         4.13108         0.74407
   C        0.66793         5.16981        -0.14778
   C       -0.04987         6.33468         0.16591
   C       -0.07018         7.56279        -0.53661
   C        0.79860         7.79373        -1.66957
   C        2.10851         7.42793        -1.81103
   C        2.65392         7.82722        -3.04897
   C        1.77903         8.48861        -3.86330
   S        0.24021         8.63855        -3.08836
   C        2.00758         9.02623        -5.22773
  Cl        4.28945         7.50674        -3.48169
   C       -0.95522         8.52328        -0.06522
   C       -1.75467         8.34228         1.09273
   C       -1.68116         7.14461         1.83099
   C       -0.84595         6.15020         1.32778
   S       -0.62383         4.57376         2.02999
   C       -2.42867         6.97444         3.05993
   C       -2.62626         7.89001         4.05598
   C       -3.40250         7.37749         5.11621
   C       -3.81204         6.08627         4.94258
   S       -3.21507         5.46809         3.44233
   C       -4.62394         5.24232         5.85536
  Cl       -3.79865         8.31396         6.50600
   C       -2.57201         9.47012         1.34681
   C       -2.39622        10.48648         0.45318
   S       -1.21175        10.08967        -0.77361
   C       -3.04230        11.78105         0.45415
   C       -3.52624        12.37270         1.62874
   F       -3.40109        11.73291         2.80073
   C       -4.11416        13.62540         1.64240
   F       -4.54922        14.08828         2.82269
   C       -4.26934        14.39508         0.48021
   C       -3.80107        13.79420        -0.69637
   C       -3.20525        12.54513        -0.70811
   F       -2.78999        12.06381        -1.88682
   F       -3.90179        14.44256        -1.86431
   C       -4.85871        15.71622         0.49492
   C       -4.95541        16.56847         1.55793
   C       -5.57573        17.80097         1.24487
   C       -5.77095        18.90844         2.09667
   C       -5.42060        18.88639         3.50214
   C       -4.87605        19.89611         4.24466
   C       -4.71659        19.54810         5.60224
   C       -5.14359        18.29013         5.91772
   S       -5.75358        17.50057         4.50632
   C       -5.14152        17.61425         7.23946
  Cl       -4.03471        20.62748         6.75702
   C       -6.33950        20.03798         1.51727
   C       -6.73181        20.09974         0.15436
   C       -6.52066        18.99675        -0.70176
   C       -5.95538        17.86639        -0.11914
   S       -5.54041        16.40583        -0.96157
   C       -6.83924        19.07285        -2.10959
   C       -6.69369        20.14205        -2.95122
   C       -7.10022        19.84917        -4.26898
   C       -7.55591        18.57455        -4.45460
   S       -7.47988        17.69556        -2.96797
   C       -8.07296        17.94686        -5.69639
  Cl       -7.02289        21.01162        -5.53494
   C       -7.33914        21.33171        -0.16700
   C       -7.37309        22.22100         0.87457
   S       -6.71353        21.52022         2.34611
   C       -7.85788        23.55228         0.92166
   C       -7.93034        24.43945        -0.11115
   C       -8.47227        25.78523        -0.00991
   C       -9.34303        26.23415         0.94711
   C       -9.85919        27.54628         0.98740
   N      -10.30331        28.60116         1.07532
   C       -9.87593        25.44304         1.98724
   N      -10.36824        24.85548         2.84198
   C       -7.99876        26.54603        -1.15788
   C       -7.26588        25.66871        -2.00656
   C       -7.23668        24.31865        -1.42188
   O       -6.69751        23.34424        -1.90308
   C       -6.70196        26.09593        -3.17422
   C       -6.84336        27.44996        -3.55080
   C       -7.56534        28.33780        -2.70144
   C       -8.14215        27.86455        -1.50035
   C       -7.69078        29.68905        -3.08292
   C       -7.13279        30.14269        -4.24718
   C       -6.42470        29.26700        -5.08373
   C       -6.28382        27.94897        -4.74337
   H       -0.68243        -0.00503         4.71831
   H        2.35831        -2.31283         1.51124
   H        2.16715        -4.35091         2.79306
   H        1.25680        -5.59573         4.71288
   H       -0.24454        -4.48257         6.31697
   H       -0.84962        -2.11371         6.01245
   H        1.73232         2.85727        -0.32626
   H        1.28933         5.06836        -1.01946
   H        2.68309         6.93747        -1.04730
   H        3.07536         9.10067        -5.41959
   H        1.55221        10.00886        -5.33272
   H        1.56638         8.36840        -5.97740
   H       -2.20307         8.87744         4.06404
   H       -3.97860         4.58330         6.43757
   H       -5.31578         4.62227         5.28939
   H       -5.18268         5.87305         6.54305
   H       -3.29356         9.49609         2.14069
   H       -4.56424        16.34604         2.53148
   H       -4.56123        20.84084         3.84251
   H       -4.39877        18.07461         7.88725
   H       -4.91807        16.55555         7.12754
   H       -6.11783        17.70591         7.71742
   H       -6.28166        21.09243        -2.66541
   H       -9.16379        17.95800        -5.70618
   H       -7.74514        16.91199        -5.76646
   H       -7.71652        18.49865        -6.56335
   H       -7.78964        21.53548        -1.11764
   H       -8.13250        23.89983         1.91088
   H       -6.15461        25.40890        -3.80253
   H       -8.67744        28.56187        -0.87553
   H       -8.23851        30.35923        -2.43678
   H       -7.23433        31.17963        -4.53022
   H       -5.99096        29.64196        -5.99866
   H       -5.73962        27.26968        -5.38312
*
