# ORCA input file
# SCF done       -207.070664779460          0.000547129501
! CAM-B3LYP def2-SVP def2/J RIJCOSX Grid4 TightSCF
%maxcore 5000
%tddft
    Mode sTDDFT
    Ethresh 5.0
    maxcore 5000
end

%pal
  nprocs 6
  end
* xyz 0 1
   C       -3.33441        -1.63356         0.32319
   C       -2.62712        -0.57023        -0.21695
   F       -3.22518         0.62129        -0.31574
   C       -1.30934        -0.71237        -0.65569
   F       -0.66744         0.34127        -1.17227
   C       -0.66095        -1.93259        -0.55831
   C       -1.36520        -2.99062        -0.01766
   C       -2.69211        -2.85877         0.42136
   C       -3.14745        -4.15109         0.92943
   C       -4.42998        -4.44235         1.31078
   C       -5.48334        -3.50185         1.32168
   N       -6.37914        -2.78603         1.36058
   C       -4.90144        -5.71266         1.70974
   N       -5.37367        -6.71021         2.02593
   C       -2.02439        -5.07226         0.87118
   C       -0.89587        -4.37862         0.20092
   O        0.19811        -4.80668        -0.08397
   C       -1.99705        -6.28987         1.49540
   C       -1.02376        -7.31421         1.47882
   C        0.02572        -7.56281         0.61813
   C        0.66699        -8.77947         1.01225
   C       -0.07078        -9.24762         2.18497
   C       -1.07934        -8.40819         2.45939
   F        0.24013       -10.36597         2.85147
   C        1.73745        -9.40469         0.41600
   C        2.39512       -10.59652         0.82198
   C        3.41242       -10.88355        -0.06781
   C        3.42333        -9.83954        -1.10151
   C        2.44170        -8.97715        -0.80443
   F        2.10756        -7.89256        -1.50186
   C        4.27397       -11.99682         0.02460
   C        5.22526       -12.31433        -0.90055
   C        6.10836       -13.41553        -0.88300
   S        6.93177       -13.79939        -2.36483
   C        7.71907       -15.17600        -1.65425
   C        7.35345       -15.30580        -0.30846
   C        6.47050       -14.31590         0.12570
   C        6.01907       -14.20702         1.54872
   C        6.93313       -15.01985         2.47799
   C        8.22620       -14.37967         2.57738
   N        9.24848       -13.87338         2.63273
   C        7.10488       -16.44717         1.91781
   C        5.80227       -17.04970         1.73903
   N        4.76645       -17.50610         1.58545
   C        7.85228       -16.40363         0.57642
   C        8.57539       -15.96438        -2.45365
   C        9.36525       -17.04513        -2.11460
   C       10.02663       -17.52301        -3.27924
   C        9.59217       -16.63738        -4.36453
   C        8.74052       -15.71695        -3.89284
   F       10.00115       -16.76883        -5.62809
   C       10.87220       -18.60437        -3.38463
   C       11.53060       -19.10384        -4.54509
   C       12.24604       -20.23636        -4.20736
   C       12.06302       -20.48284        -2.77275
   C       11.26224       -19.51454        -2.30475
   F       10.84280       -19.37370        -1.04085
   C       13.01497       -21.01627        -5.09668
   C       13.64598       -22.18070        -4.76525
   C       14.40459       -22.91475        -5.69582
   C       15.12739       -24.05585        -5.48284
   C       15.52764       -24.88360        -6.65143
   O       15.50098       -24.55883        -7.81470
   C       15.90639       -26.19670        -6.08290
   C       15.85118       -26.13169        -4.67928
   C       16.12824       -27.25870        -3.92223
   C       16.46056       -28.42688        -4.59223
   C       16.52584       -28.47964        -5.98552
   C       16.24633       -27.35768        -6.74915
   F       16.85621       -29.62670        -6.58863
   F       16.72010       -29.52871        -3.88153
   C       15.50448       -24.76477        -4.28053
   C       15.71284       -24.23954        -3.03248
   C       15.64077       -22.86758        -2.70789
   N       15.64187       -21.76780        -2.38001
   C       16.12830       -25.00117        -1.91856
   N       16.44128       -25.56810        -0.97141
   H       -4.34795        -1.47055         0.65072
   H        0.35732        -2.04788        -0.89400
   H       -2.84298        -6.51676         2.13482
   H        0.32192        -6.96017        -0.21639
   H       -1.80218        -8.48730         3.24797
   H        2.13669       -11.17813         1.68496
   H        4.09710        -9.78289        -1.93298
   H        4.10642       -12.63576         0.87753
   H        5.29965       -11.69661        -1.78557
   H        4.99764       -14.59006         1.64491
   H        6.02418       -13.15810         1.85676
   H        6.49354       -15.05899         3.48181
   H        7.66824       -17.06586         2.62644
   H        7.73407       -17.36403         0.06776
   H        8.91913       -16.25199         0.76934
   H        9.50775       -17.46989        -1.14455
   H        8.24895       -14.93690        -4.44080
   H       11.46529       -18.67053        -5.52408
   H       12.51512       -21.27302        -2.20787
   H       13.10800       -20.64184        -6.10868
   H       13.53495       -22.57121        -3.76623
   H       14.36194       -22.59321        -6.73183
   H       16.08727       -27.27023        -2.84531
   H       16.29307       -27.39626        -7.82577
*
