# ORCA input file
# SCF done       -218.269218498582          0.000208727073
! CAM-B3LYP def2-SVP def2/J RIJCOSX Grid4 TightSCF
%maxcore 5000
%tddft
    Mode sTDDFT
    Ethresh 5.0
    maxcore 5000
end

%pal
  nprocs 6
  end
* xyz 0 1
   C       -3.82642        -2.51089         4.14319
   C       -2.56488        -2.97267         3.90396
   C       -2.35602        -4.28446         4.44722
   C       -3.44100        -4.78065         5.09139
   S       -4.74799        -3.65686         5.03228
   C       -0.99501        -4.75284         4.14921
   O       -0.50747        -5.80801         4.47357
   C       -0.40796        -3.66146         3.31454
   C       -1.31784        -2.52155         3.32074
   C       -0.96027        -1.24642         2.97522
   N       -1.86847        -0.15116         2.84337
   O       -1.42113         0.96203         3.00812
   O       -3.02666        -0.40740         2.57983
   N        0.43355        -0.85522         2.79723
   O        1.20474        -1.18138         3.66890
   O        0.70563        -0.23602         1.79884
   C        0.65844        -3.74550         2.45788
   C        1.68694        -4.70281         2.33130
   C        2.56340        -4.69206         1.25958
   C        3.51410        -5.74450         1.42107
   C        3.15999        -6.38013         2.68939
   C        2.08938        -5.78312         3.23696
   F        3.84189        -7.41327         3.19570
   C        4.52891        -6.10387         0.56340
   C        5.46708        -7.16403         0.69407
   C        6.27775        -7.19361        -0.42568
   C        5.86542        -6.10053        -1.31881
   C        4.84354        -5.46990        -0.72590
   F        4.17510        -4.42066        -1.20794
   C        7.29835        -8.13013        -0.68345
   C        8.01436        -8.16878        -1.84669
   C        8.99935        -9.14000        -2.12379
   O        9.30773       -10.05884        -1.19040
   C       10.23484       -10.89890        -1.69324
   C       10.55180       -10.51413        -3.01790
   C        9.76260        -9.37795        -3.28635
   C        9.72424        -8.57533        -4.54198
   F        8.89274        -7.53062        -4.49380
   F       10.92862        -8.06402        -4.86459
   F        9.33157        -9.30192        -5.60810
   O       11.44845       -11.22839        -3.69390
   C       11.82351       -10.91155        -5.02387
   C       10.78362       -11.97574        -0.98074
   C       10.53047       -12.27067         0.33035
   C       11.11057       -13.35546         1.01366
   C       11.00113       -13.62325         2.36837
   C       11.75500       -14.78455         2.67741
   C       12.31462       -15.23170         1.39324
   C       11.95469       -14.39555         0.41084
   F       13.07693       -16.32077         1.26236
   C       11.98004       -15.36866         3.90558
   C       12.76688       -16.51765         4.19744
   C       12.77114       -16.72969         5.56497
   C       11.95464       -15.68457         6.19201
   C       11.49376       -14.89951         5.20585
   F       10.70453       -13.83025         5.34120
   C       13.47095       -17.76676         6.21188
   C       13.53449       -17.95385         7.56467
   C       14.31004       -18.97782         8.13517
   C       14.62157       -19.17871         9.45342
   C       14.40824       -18.36131        10.62846
   C       14.33063       -16.99072        10.66029
   N       14.00630       -16.24141        11.83756
   O       14.52027       -15.15336        11.96513
   O       13.24392       -16.75318        12.63386
   N       14.66370       -16.15990         9.52549
   O       13.98210       -15.17619         9.34682
   O       15.58521       -16.51340         8.82426
   C       14.50794       -19.25399        11.77276
   C       14.33315       -19.21982        13.12509
   S       14.78562       -20.71125        13.85050
   C       15.21673       -21.40787        12.33266
   C       15.00977       -20.52474        11.32557
   C       15.14650       -20.51542         9.86422
   O       15.53744       -21.39154         9.13193
   H       -4.28307        -1.59417         3.82764
   H       -3.55453        -5.72079         5.59281
   H        0.72760        -2.96859         1.70212
   H        2.53320        -4.01021         0.43162
   H        1.60028        -6.03299         4.15584
   H        5.52038        -7.83732         1.52707
   H        6.30831        -5.85639        -2.26346
   H        7.49514        -8.86768         0.08259
   H        7.81300        -7.44131        -2.61294
   H       12.54391       -11.67929        -5.30053
   H       12.30182        -9.93269        -5.08345
   H       10.97166       -10.95691        -5.70407
   H       11.47431       -12.57349        -1.55535
   H        9.86754       -11.62778         0.89324
   H       10.45392       -13.03730         3.08056
   H       12.21469       -14.47317        -0.62563
   H       13.27974       -17.11802         3.47172
   H       11.78231       -15.56247         7.24262
   H       14.04106       -18.43008         5.57335
   H       12.96607       -17.30042         8.21004
   H       14.68248       -19.74609         7.46508
   H       13.93373       -18.43734        13.73918
   H       15.59304       -22.40985        12.28224
*
