# ORCA input file
# SCF done       -214.921139146443          0.000720802827
! CAM-B3LYP def2-SVP def2/J RIJCOSX Grid4 TightSCF
%maxcore 5000
%tddft
    Mode sTDDFT
    Ethresh 5.0
    maxcore 5000
end

%pal
  nprocs 6
  end
* xyz 0 1
   C       -5.88344         3.82511         2.30515
   C       -5.03524         4.24668         3.31840
   C       -4.07972         3.39502         3.85424
   C       -3.93926         2.09705         3.38624
   C       -4.78075         1.66496         2.37470
   C       -5.76114         2.52771         1.83264
   C       -6.50790         1.81093         0.80615
   C       -7.46775         2.34391        -0.01135
   C       -7.87387         3.69558         0.02173
   N       -8.25107         4.77900        -0.00633
   C       -8.16241         1.64572        -1.02237
   N       -8.76484         1.14843        -1.86349
   C       -6.04509         0.42845         0.84008
   C       -4.84655         0.39706         1.66599
   C       -3.84464        -0.53402         1.58390
   C       -3.79894        -1.56343         0.61838
   N       -3.65954        -2.35756        -0.19861
   C       -2.67866        -0.50065         2.37676
   N       -1.72415        -0.53062         3.01279
   C       -6.68446        -0.64182         0.27398
   C       -6.52700        -2.00267         0.62213
   C       -6.83657        -3.07234        -0.19295
   C       -6.53200        -4.28332         0.49299
   C       -6.08980        -3.86822         1.82373
   C       -6.06853        -2.52864         1.91340
   F       -5.77585        -4.72691         2.79742
   C       -6.58669        -5.57202         0.00976
   C       -6.21514        -6.77440         0.66833
   C       -6.36613        -7.83341        -0.20849
   C       -6.86978        -7.30432        -1.48233
   C       -7.00274        -5.97895        -1.34047
   F       -7.44644        -5.12071        -2.26080
   C       -6.08726        -9.20066        -0.00758
   C       -5.70327        -9.75183         1.18248
   C       -5.39965       -11.12505         1.30977
   O       -5.39466       -11.89068         0.20492
   C       -5.06029       -13.15658         0.53646
   C       -4.84602       -13.22774         1.93397
   C       -5.06269       -11.92117         2.42283
   C       -4.98101       -11.44424         3.83276
   F       -5.28405       -10.15202         3.98068
   F       -5.82096       -12.10841         4.65310
   F       -3.75059       -11.59235         4.36404
   O       -4.50783       -14.38956         2.49014
   C       -4.20932       -14.51227         3.87092
   C       -4.94697       -14.11343        -0.48607
   C       -4.63322       -15.43174        -0.30718
   C       -4.46207       -16.35622        -1.35397
   C       -4.14576       -17.69603        -1.19866
   C       -3.99389       -18.29316        -2.47512
   C       -4.25682       -17.21336        -3.43609
   C       -4.54158       -16.07306        -2.79239
   F       -4.22200       -17.38501        -4.76163
   C       -3.65170       -19.59338        -2.78196
   C       -3.41301       -20.16210        -4.06279
   C       -3.06437       -21.49155        -3.91042
   C       -3.09503       -21.81241        -2.48137
   C       -3.43071       -20.68706        -1.83242
   F       -3.57039       -20.54516        -0.50985
   C       -2.67890       -22.35376        -4.95682
   C       -2.39736       -23.68149        -4.81938
   C       -2.00107       -24.54021        -5.87175
   C       -1.31567       -24.21405        -7.01163
   C       -1.30252       -25.01607        -8.23056
   C       -1.68827       -26.32232        -8.37214
   C       -2.13794       -27.16732        -7.33519
   N       -2.50920       -27.91853        -6.55004
   C       -1.64973       -27.03021        -9.59297
   N       -1.64433       -27.66693       -10.54782
   C       -0.80527       -24.15483        -9.29593
   C       -0.38147       -22.92959        -8.73329
   C        0.11458       -21.91641        -9.53712
   C        0.19301       -22.13472       -10.90423
   C       -0.21025       -23.34168       -11.45773
   C       -0.71325       -24.36138       -10.66363
   C       -0.54725       -23.00478        -7.28981
   C        0.12871       -22.23950        -6.37750
   C        0.94086       -21.13956        -6.72403
   N        1.59976       -20.22647        -6.94576
   C        0.17493       -22.49779        -4.99135
   N        0.30516       -22.68001        -3.86578
   H       -6.62116         4.50041         1.90443
   H       -5.12453         5.25380         3.69575
   H       -3.43566         3.74459         4.64645
   H       -3.19705         1.44208         3.81310
   H       -7.43361        -0.44650        -0.48188
   H       -7.17800        -3.00361        -1.20718
   H       -5.83352        -1.94573         2.78276
   H       -5.85388        -6.82899         1.67571
   H       -7.08896        -7.89639        -2.34921
   H       -6.19238        -9.85124        -0.86554
   H       -5.62895        -9.13183         2.05863
   H       -3.93402       -15.55713         4.00417
   H       -5.07778       -14.28940         4.49236
   H       -3.36746       -13.88037         4.15765
   H       -5.12242       -13.72675        -1.47965
   H       -4.49042       -15.80273         0.69663
   H       -4.01670       -18.20180        -0.26213
   H       -4.77568       -15.12667        -3.23696
   H       -3.47574       -19.63376        -4.99416
   H       -2.86369       -22.76379        -2.04679
   H       -2.63009       -21.90459        -5.94233
   H       -2.58448       -24.15614        -3.86666
   H       -2.32901       -25.56678        -5.77084
   H        0.42358       -20.97215        -9.11915
   H        0.57260       -21.35298       -11.54409
   H       -0.13659       -23.49126       -12.52397
   H       -1.02737       -25.28871       -11.11316
*
