# ORCA input file
# SCF done       -167.294819980044          0.000400820561
! CAM-B3LYP def2-SVP def2/J RIJCOSX Grid4 TightSCF
%maxcore 5000
%tddft
    Mode sTDDFT
    Ethresh 5.0
    maxcore 5000
end

%pal
  nprocs 6
  end
* xyz 0 1
   C       -3.72803         3.79268        -0.85406
   C       -4.62025         4.50458        -1.64214
   C       -5.88593         4.00817        -1.91958
   C       -6.29950         2.78658        -1.40966
   C       -5.41655         2.06651        -0.62252
   C       -4.12360         2.56561        -0.34535
   C       -3.41024         1.59762         0.47883
   C       -2.17598         1.78265         1.04398
   C       -1.41119         2.96073         0.90872
   N       -0.73585         3.88641         0.84165
   C       -1.50772         0.85348         1.86781
   N       -0.91109         0.14335         2.54537
   C       -4.25773         0.41447         0.56460
   C       -5.57172         0.79399         0.06415
   C       -6.76346         0.21768         0.41555
   C       -6.87669        -0.83773         1.34402
   N       -7.02176        -1.65503         2.13652
   C       -8.01966         0.67608        -0.03051
   N       -9.06516         0.99592        -0.37981
   C       -3.82251        -0.82574         0.94695
   C       -4.39330        -2.08282         0.65308
   N       -3.97108        -3.21257         1.29612
   C       -4.57916        -4.30385         0.76886
   C       -5.39474        -3.87313        -0.28568
   C       -5.28519        -2.49784        -0.35142
   C       -4.36364        -5.58608         1.24890
   C       -4.15695        -6.69951         1.68755
   C       -3.89159        -7.93873         2.23319
   S       -4.60056        -9.42267         1.61814
   C       -3.07561        -8.22365         3.30322
   C       -2.21345        -7.48143         4.23294
   O       -1.96940        -6.30236         4.30184
   N       -1.68921        -8.45952         5.07441
   C       -0.77642        -8.16302         6.15044
   C       -2.12084        -9.75171         4.78367
   O       -1.78919       -10.74282         5.38563
   C       -3.01965        -9.59377         3.63173
   C       -3.78311       -10.40869         2.82554
   C       -3.92534       -11.81442         2.91454
   C       -4.66328       -12.56233         2.06099
   C       -4.82161       -13.96985         2.14829
   N       -5.54073       -14.66491         1.23439
   C       -5.52756       -15.99308         1.54391
   C       -4.77244       -16.14887         2.71967
   C       -4.33949       -14.89329         3.09525
   C       -6.16574       -16.93701         0.77123
   C       -6.77047       -17.64681        -0.02012
   C       -7.29234       -18.65574        -0.78628
   C       -8.18801       -18.61884        -1.82587
   C       -8.66837       -19.83796        -2.46833
   C       -8.10319       -21.08430        -2.40574
   C       -6.90837       -21.42387        -1.73477
   N       -5.93772       -21.78408        -1.23702
   C       -8.62165       -22.22351        -3.05907
   N       -8.98313       -23.19323        -3.55544
   C       -9.84086       -19.47842        -3.24876
   C      -10.01463       -18.07829        -3.18150
   C      -11.07479       -17.47743        -3.84271
   C      -11.95038       -18.27448        -4.56474
   C      -11.77643       -19.64877        -4.63139
   C      -10.72120       -20.26416        -3.97541
   C       -8.94617       -17.50527        -2.36890
   C       -8.72563       -16.15766        -2.23154
   C       -9.56298       -15.15548        -2.77539
   N      -10.18140       -14.26998        -3.16438
   C       -7.65277       -15.49490        -1.61877
   N       -6.84254       -14.78806        -1.20988
   H       -2.74819         4.19334        -0.65336
   H       -4.32035         5.45882        -2.04743
   H       -6.55945         4.57781        -2.54136
   H       -7.28287         2.40716        -1.63599
   H       -2.87388        -0.87949         1.46576
   H       -3.35157        -3.23261         2.09205
   H       -5.98793        -4.50781        -0.91288
   H       -5.75943        -1.86185        -1.07287
   H       -0.55993        -7.09678         6.11782
   H        0.14245        -8.73725         6.02737
   H       -1.22766        -8.42225         7.10925
   H       -3.38548       -12.27221         3.73178
   H       -5.17839       -12.07287         1.24228
   H       -5.98166       -14.31088         0.38872
   H       -4.58726       -17.07905         3.21916
   H       -3.74155       -14.65524         3.95188
   H       -6.94920       -19.63745        -0.47741
   H      -11.23408       -16.41332        -3.80159
   H      -12.77938       -17.81396        -5.07993
   H      -12.47051       -20.25033        -5.19793
   H      -10.60192       -21.33331        -4.03188
*
