# ORCA input file
# SCF done       -191.445323749346          0.000546603789
! CAM-B3LYP def2-SVP def2/J RIJCOSX Grid4 TightSCF
%maxcore 5000
%tddft
    Mode sTDDFT
    Ethresh 5.0
    maxcore 5000
end

%pal
  nprocs 6
  end
* xyz 0 1
   C      -12.52118        -5.25109         4.01806
   C      -13.35379        -6.02065         3.21894
   C      -13.27885        -5.95541         1.83501
   C      -12.37335        -5.11148         1.20922
   C      -11.53639        -4.33886         1.99650
   C      -11.60481        -4.41035         3.40635
   C      -10.60204        -3.51587         3.97151
   C      -10.45208        -3.21829         5.29973
   C      -11.26366        -3.74905         6.32533
   N      -11.88286        -4.13899         7.20969
   C       -9.51309        -2.31592         5.84333
   N       -8.78976        -1.59442         6.36774
   C       -9.80913        -3.01677         2.85374
   C      -10.52272        -3.36082         1.63497
   C      -10.43709        -2.71194         0.43198
   C       -9.64399        -1.57053         0.20368
   N       -9.04135        -0.62112        -0.02907
   C      -11.18040        -3.06721        -0.71119
   N      -11.73417        -3.32337        -1.68370
   C       -8.57104        -2.44291         2.98879
   C       -7.55867        -2.29356         2.02645
   C       -7.33294        -2.97770         0.81763
   N       -8.04796        -3.99259         0.30424
   C       -7.64081        -4.46255        -0.84995
   C       -6.51296        -3.95783        -1.52684
   N       -5.76587        -3.01018        -1.01432
   C       -6.15763        -2.51488         0.16198
   C       -5.46431        -1.50467         0.86631
   S       -6.27553        -1.15635         2.34382
   C       -4.29951        -0.90883         0.34812
   S       -3.74393        -1.42937        -1.21520
   C       -3.45982         0.07538         0.88391
   C       -3.67284         0.68611         2.19259
   O       -4.60190         0.38117         2.93627
   C       -2.68061         1.68127         2.53022
   C       -2.56238         2.46493         3.65992
   N       -1.46951         3.24898         3.52549
   C       -1.05019         4.25773         4.46631
   C       -1.71089         5.60002         4.15929
   C       -0.87766         3.00363         2.33159
   C       -1.59547         2.02816         1.67519
   C       -1.36188         1.42426         0.37205
   O       -0.43498         1.73834        -0.35389
   C       -2.37567         0.40294         0.03331
   C       -2.38408        -0.33019        -1.15343
   C       -1.44482        -0.26050        -2.20311
   C       -1.58351        -0.94758        -3.37298
   C       -0.65605        -0.89705        -4.42794
   C        0.59259        -0.23719        -4.48658
   N        1.13193         0.50642        -3.51341
   C        2.30023         1.04011        -3.76340
   C        2.94073         0.89864        -5.01198
   N        2.44389         0.16934        -5.97996
   C        1.27992        -0.44937        -5.71962
   C        0.57976        -1.28723        -6.61155
   S       -0.94180        -1.74031        -5.90522
   C        0.89316        -1.67948        -7.91996
   C        2.12994        -1.68067        -8.51935
   C        3.43676        -1.64671        -7.88631
   C        3.75643        -2.14603        -6.65022
   C        2.83753        -2.77982        -5.79250
   N        2.13298        -3.32862        -5.07012
   C        5.05532        -2.13514        -6.10535
   N        6.08288        -2.13381        -5.59308
   C        4.39488        -1.24941        -8.90580
   C        3.74298        -1.26009       -10.15948
   C        4.44512        -0.94709       -11.31246
   C        5.78826        -0.61693       -11.20413
   C        6.42403        -0.59896        -9.97128
   C        5.73584        -0.91865        -8.81010
   C        2.34294        -1.61478        -9.95840
   C        1.42055        -1.82338       -10.95041
   C        1.70748        -1.73468       -12.32925
   N        1.86575        -1.68196       -13.46501
   C        0.07229        -2.19045       -10.75776
   N       -1.03354        -2.49269       -10.68437
   H      -12.59097        -5.31931         5.09115
   H      -14.06767        -6.68269         3.68479
   H      -13.93234        -6.57018         1.23500
   H      -12.31867        -5.07313         0.13345
   H       -8.29080        -2.09715         3.97583
   H       -8.21919        -5.27733        -1.26278
   H       -6.20919        -4.35111        -2.48580
   H       -3.18585         2.49503         4.53137
   H        0.03699         4.35412         4.41026
   H       -1.32132         3.92873         5.47251
   H       -1.44426         5.93422         3.15954
   H       -1.38287         6.34722         4.87603
   H       -2.79304         5.51202         4.21734
   H        0.00891         3.51811         2.01831
   H       -0.58631         0.38195        -2.05583
   H       -2.45835        -1.56803        -3.52760
   H        2.74064         1.62351        -2.96804
   H        3.87362         1.40194        -5.22513
   H        0.03993        -1.94443        -8.53050
   H        3.96829        -0.95057       -12.27867
   H        6.34333        -0.36682       -12.09537
   H        7.46814        -0.33173        -9.91190
   H        6.23758        -0.89545        -7.85645
*
