# ORCA input file
# SCF done       -188.402662596996          0.000607557321
! CAM-B3LYP def2-SVP def2/J RIJCOSX Grid4 TightSCF
%maxcore 5000
%tddft
    Mode sTDDFT
    Ethresh 5.0
    maxcore 5000
end

%pal
  nprocs 6
  end
* xyz 0 1
   C       -4.27098         3.32882        -6.02062
   C       -5.45344         3.35430        -6.74583
   C       -6.68356         3.28691        -6.11031
   C       -6.76682         3.13263        -4.73447
   C       -5.59306         3.05272        -4.00629
   C       -4.34100         3.19528        -4.64495
   C       -3.29492         3.14964        -3.63082
   C       -1.98361         3.49436        -3.83031
   C       -1.47536         3.90338        -5.08074
   N       -1.02309         4.23866        -6.08105
   C       -1.00040         3.55824        -2.82171
   N       -0.16414         3.64264        -2.03894
   C       -3.93059         2.71412        -2.39232
   C       -5.36391         2.84281        -2.58570
   C       -6.32134         2.88321        -1.60465
   C       -6.03169         2.93121        -0.22696
   N       -5.84784         3.02820         0.90185
   C       -7.70570         2.92912        -1.85761
   N       -8.84390         2.90030        -2.00533
   C       -3.23297         2.18523        -1.33073
   C       -3.65299         1.35820        -0.25412
   C       -2.91970         1.46910         0.99276
   C       -1.84610         2.22994         1.29178
   S       -1.40751         2.15541         3.05615
   F       -0.82693         1.81178         4.80643
   C       -2.61480         0.89426         3.25956
   C       -3.34980         0.68193         2.14599
   C       -4.45210        -0.21464         2.01131
   C       -5.07622        -0.33677         0.82000
   C       -4.68388         0.41049        -0.33536
   C       -5.30540         0.13890        -1.59355
   C       -6.59366        -0.23390        -1.80291
   C       -7.18787        -0.24312        -3.09156
   N       -6.45147        -0.16244        -4.25895
   C       -7.30106         0.09704        -5.28516
   C       -7.34948         0.44057        -6.63020
   C       -8.69081         0.74135        -6.90150
   N       -9.44695         0.52894        -5.76824
   C       -8.61574         0.16841        -4.75469
   C       -8.54737        -0.07103        -3.38648
   C       -9.25909         1.32681        -8.06842
   C       -8.52647         1.93723        -9.02735
   C       -9.07005         2.64685       -10.15915
   C      -10.18506         2.09242       -10.88722
   C      -10.76711         0.87804       -10.76360
   S      -12.22596         0.69374       -11.83844
   F      -13.52570         0.43302       -13.15850
   C      -11.79144         2.21377       -12.61023
   C      -10.76106         2.84139       -12.00380
   C      -10.17515         4.09004       -12.37389
   C       -9.08993         4.54348       -11.71311
   C       -8.51717         3.84959       -10.59267
   C       -7.46335         4.48564        -9.85091
   C       -6.60157         5.41293       -10.34199
   C       -5.53511         6.03940        -9.64529
   C       -5.35198         6.32362        -8.31736
   C       -4.04524         6.65172        -7.74396
   C       -2.89435         6.97963        -8.40681
   C       -2.72568         7.06187        -9.80613
   N       -2.49587         7.15375       -10.92764
   C       -1.69074         7.35664        -7.76737
   N       -0.69244         7.71218        -7.32851
   C       -4.18475         6.57506        -6.29651
   C       -5.54152         6.34691        -5.97890
   C       -5.94290         6.23332        -4.65718
   C       -4.98352         6.32752        -3.66068
   C       -3.64912         6.54445        -3.97281
   C       -3.23703         6.67714        -5.28996
   C       -6.30759         6.31142        -7.21747
   C       -7.66743         6.46396        -7.30113
   C       -8.53765         6.39844        -6.19394
   N       -9.30690         6.29596        -5.34777
   C       -8.37663         6.75192        -8.48349
   N       -9.01357         7.03793        -9.39475
   H       -3.32522         3.40186        -6.53158
   H       -5.40002         3.43817        -7.82169
   H       -7.59717         3.34799        -6.68186
   H       -7.72995         3.06580        -4.25753
   H       -2.17328         2.40362        -1.31874
   H       -1.34983         2.93495         0.65205
   H       -0.30427         1.43277         2.77207
   H       -2.73562         0.47125         4.23621
   H       -4.75882        -0.79168         2.86968
   H       -5.88591        -1.04070         0.70135
   H       -4.69578         0.36335        -2.46070
   H       -7.26854        -0.37104        -0.97078
   H       -5.46160        -0.31788        -4.33013
   H       -6.54006         0.47833        -7.33029
   H      -10.42985         0.72894        -5.69050
   H       -9.34100        -0.06184        -2.66771
   H      -10.33911         1.38264        -8.10434
   H       -7.45150         1.95338        -8.91539
   H      -10.52176         0.12197       -10.04237
   H      -11.56087        -0.19227       -12.60660
   H      -12.39858         2.54762       -13.42673
   H      -10.61606         4.64959       -13.18351
   H       -8.66801         5.49958       -11.97674
   H       -7.34594         4.16933        -8.82388
   H       -6.62383         5.62919       -11.40186
   H       -4.70360         6.29498       -10.29037
   H       -6.97504         6.06586        -4.39657
   H       -5.28282         6.23438        -2.62705
   H       -2.91959         6.61948        -3.17996
   H       -2.19785         6.84950        -5.51472
*
