# ORCA input file
# SCF done       -170.394849586740          0.000495891082
! CAM-B3LYP def2-SVP def2/J RIJCOSX Grid4 TightSCF
%maxcore 5000
%tddft
    Mode sTDDFT
    Ethresh 5.0
    maxcore 5000
end

%pal
  nprocs 6
  end
* xyz 0 1
   C        0.02699         0.50510         3.28778
   C       -1.31117         0.77422         3.21195
   F       -2.12554         0.36936         4.20445
   C       -1.87966         1.46254         2.13172
   C       -1.06820         1.88062         1.11372
   C        0.31871         1.62885         1.13963
   C        0.87817         0.93004         2.24905
   C        2.26856         0.67542         2.30333
   C        3.06964         1.10193         1.27884
   C        2.50176         1.78409         0.16379
   C        1.16515         2.05041         0.08942
   C        3.56669         2.09671        -0.80823
   O        3.47133         2.71084        -1.84620
   C        4.79223         1.43941        -0.26978
   C        4.51335         1.01756         1.08393
   C        5.43508         0.79311         2.07303
   C        5.10543         0.39413         3.38295
   N        4.89976         0.03388         4.45376
   C        6.81929         0.99883         1.91404
   N        7.95088         1.18209         1.84466
   C        5.85542         1.25550        -1.09542
   C        6.98069         0.38731        -0.96272
   C        8.16262         0.65236        -1.65785
   N        9.28314        -0.04566        -1.59402
   C        9.37331        -1.13246        -0.84126
   C        8.21971        -1.56961        -0.13126
   C        7.00761        -0.80356        -0.19200
   N        6.02279        -1.37550         0.49905
   S        6.57994        -2.73084         1.17176
   N        8.08500        -2.66519         0.61309
   C       10.59220        -1.88313        -0.69792
   C       11.81269        -1.59648        -1.18377
   C       12.14220        -0.44483        -2.06654
   C       12.97028        -2.51798        -0.87008
   N       13.35220        -3.27627        -2.03972
   C       14.22965        -2.82587        -2.95523
   C       14.41847        -3.38109        -4.18572
   C       15.39139        -2.92308        -5.08693
   C       15.65604        -3.48308        -6.31091
   C       16.60806        -3.04481        -7.26105
   C       16.67098        -3.80768        -8.38706
   C       15.77454        -4.90105        -8.39049
   S       14.83267        -4.91760        -6.91926
   C       15.62327        -5.86425        -9.36894
   C       16.31019        -5.96508       -10.59861
   C       15.95066        -7.04424       -11.34430
   C       14.95722        -7.86511       -10.74701
   S       14.49116        -7.19607        -9.19600
   C       14.44726        -9.01212       -11.29475
   C       13.46543        -9.86498       -10.75282
   S       12.66067        -9.56070        -9.23560
   C       11.69327       -10.96473        -9.40472
   C       11.96549       -11.64640       -10.55684
   C       12.98523       -11.03957       -11.32177
   C       13.44691       -11.59176       -12.63443
   F       12.94856       -10.83172       -13.67630
   C       12.98530       -13.04659       -12.76560
   F       13.28218       -13.53630       -14.01154
   C       11.49838       -13.21787       -12.44949
   F       10.71116       -12.37556       -13.18654
   C       11.27807       -12.91393       -10.96281
   F       11.78485       -13.98419       -10.23904
   H        0.43048        -0.02410         4.13697
   H       -2.94224         1.64678         2.12689
   H       -1.48283         2.41243         0.27047
   H        2.66521         0.13970         3.15121
   H        0.75690         2.57715        -0.76019
   H        5.81242         1.82075        -2.02230
   H        8.21581         1.52954        -2.29037
   H       10.47088        -2.75474        -0.06679
   H       12.51802        -0.80424        -3.02627
   H       11.26172         0.16614        -2.23242
   H       12.92746         0.15895        -1.61146
   H       12.70175        -3.21896        -0.07599
   H       13.83686        -1.93489        -0.54627
   H       12.69224        -3.97760        -2.34629
   H       14.85373        -2.00268        -2.63311
   H       13.80579        -4.21883        -4.49097
   H       15.98284        -2.06214        -4.80234
   H       17.21789        -2.17684        -7.08058
   H       17.33808        -3.61975        -9.20877
   H       17.04698        -5.24211       -10.89952
   H       16.36360        -7.28487       -12.30779
   H       14.83130        -9.28938       -12.26691
   H       10.97749       -11.21571        -8.64825
   H       14.53975       -11.54761       -12.74179
   H       13.54868       -13.66041       -12.04837
   H       11.18263       -14.24172       -12.68764
   H       10.20489       -12.87600       -10.73902
*
