# ORCA input file
# SCF done       -205.863197763214          0.000453403227
! CAM-B3LYP def2-SVP def2/J RIJCOSX Grid4 TightSCF
%maxcore 5000
%tddft
    Mode sTDDFT
    Ethresh 5.0
    maxcore 5000
end

%pal
  nprocs 6
  end
* xyz 0 1
   C      -12.59837         0.16217        -0.54002
   C      -12.17772        -1.13549        -0.68744
   C      -12.97887        -2.26369        -0.41447
   N      -13.57770        -3.22236        -0.21210
   C      -10.90397        -1.54071        -1.13686
   N       -9.89512        -1.95717        -1.49486
   C      -13.92214         0.56970        -0.07749
   C      -13.99342         1.98395        -0.08892
   C      -15.11514         2.67474         0.29942
   C      -16.22384         1.93385         0.72134
   C      -16.14561         0.52096         0.72711
   C      -15.01013        -0.17712         0.33417
   S      -17.62773        -0.19879         1.27910
   C      -18.32248         1.38594         1.49181
   C      -17.48938         2.40332         1.16764
  Br      -20.08225         1.54826         2.12066
   C      -12.71383         2.53272        -0.57470
   O      -12.47400         3.70764        -0.77578
   C      -11.83498         1.36432        -0.80596
   C      -10.52573         1.44248        -1.20866
   C       -9.83347         2.65535        -1.36716
   C       -8.57433         2.75440        -1.88294
   C       -7.94359         4.00753        -2.02188
   O       -8.54032         5.11760        -1.51689
   C       -7.79643         6.19989        -1.84250
   C       -6.68384         5.78404        -2.57144
   C       -6.76634         4.38163        -2.67594
   O       -5.90485         3.55712        -3.29195
   O       -5.66863         6.51479        -3.10027
   C       -8.23736         7.48618        -1.44120
   C       -9.25609         7.65828        -0.55698
   C       -9.80718         8.91339        -0.21345
   C      -10.70795         9.07726         0.79274
   C      -11.39500        10.27969         1.08714
   S      -11.92315        10.61923         2.69805
   C      -12.63834        12.13875         2.26293
   C      -12.43776        12.39773         0.89619
   C      -11.77339        11.32140         0.22539
   C      -11.64707        11.34148        -1.17742
   C      -12.05767        12.44306        -1.86880
   F      -11.94844        12.47127        -3.20515
   C      -12.57405        13.57028        -1.19208
   F      -12.87376        14.67243        -1.89079
   C      -12.77181        13.55265         0.15814
   C      -13.41145        12.80772         3.24703
   C      -14.32493        13.76850         2.98545
   N      -15.14566        14.34360         3.91777
   C      -16.21355        15.12194         3.59429
   S      -16.72245        16.35782         4.69808
   C      -17.88173        16.91007         3.53044
   N      -18.69691        17.99426         3.89341
   O      -19.50602        18.39034         3.08010
   O      -18.51314        18.46052         5.00282
   C      -17.86143        16.20034         2.36632
   C      -16.93658        15.13132         2.38823
   C      -16.85943        14.20458         1.29606
   C      -16.52051        12.88777         1.27541
   C      -16.10908        12.26304        -0.01722
   O      -16.22591        12.74476        -1.11950
   C      -15.46393        10.98923         0.35176
   C      -14.84659        10.07342        -0.45166
   C      -14.30289         8.90250         0.12375
   C      -14.41314         8.70616         1.53096
   C      -13.87847         7.53678         2.10437
   C      -13.27911         6.60862         1.29847
   C      -13.16473         6.77616        -0.08893
   C      -13.66869         7.91366        -0.65751
   F      -12.77181         5.49330         1.85229
   C      -15.05213         9.67373         2.33932
   C      -15.57233        10.79869         1.75913
   C      -16.30946        11.91993         2.32998
   C      -16.88230        11.93671         3.57903
   C      -17.85232        12.87000         3.98645
   N      -18.67397        13.58312         4.35406
   C      -16.60255        10.98963         4.58283
   N      -16.36387        10.28229         5.45551
   H      -15.13720         3.75324         0.28130
   H      -15.00244        -1.25376         0.35880
   H      -17.75511         3.44220         1.23946
   H       -9.97768         0.53132        -1.40849
   H      -10.33810         3.56525        -1.07929
   H       -8.03095         1.89188        -2.23979
   H       -5.18748         4.08320        -3.67061
   H       -5.80447         7.45086        -2.91994
   H       -7.73544         8.34262        -1.87137
   H       -9.68897         6.77963        -0.10003
   H       -9.47043         9.77387        -0.77462
   H      -10.89618         8.24424         1.45758
   H      -11.25729        10.49155        -1.71109
   H      -13.14188        14.44566         0.63033
   H      -13.31780        12.43115         4.25769
   H      -14.48795        14.12847         1.98599
   H      -14.90065        14.26248         4.89673
   H      -18.52557        16.40615         1.54618
   H      -17.08684        14.62896         0.32261
   H      -14.78320        10.23465        -1.51730
   H      -13.95006         7.37469         3.16872
   H      -12.69914         5.99417        -0.66782
   H      -13.59531         8.06569        -1.72373
   H      -15.10926         9.50016         3.40186
*
