# ORCA input file
# SCF done       -182.128838546928          0.000257304531
! CAM-B3LYP def2-SVP def2/J RIJCOSX Grid4 TightSCF
%maxcore 5000
%tddft
    Mode sTDDFT
    Ethresh 5.0
    maxcore 5000
end

%pal
  nprocs 6
  end
* xyz 0 1
   C      -14.06634         0.50224        -3.63081
   C      -14.69030        -0.53099        -2.98379
   C      -16.03699        -0.50857        -2.56507
   N      -17.12643        -0.54781        -2.20689
   C      -14.06285        -1.75492        -2.67308
   N      -13.58260        -2.76373        -2.40996
   C      -14.67347         1.77975        -3.99217
   C      -13.72460         2.55508        -4.70744
   C      -14.00192         3.81472        -5.18186
   C      -15.26893         4.34505        -4.92156
   C      -16.20840         3.56713        -4.20196
   C      -15.93260         2.28683        -3.73559
   S      -17.70720         4.41591        -3.98752
   C      -17.06142         5.78724        -4.85031
   C      -15.78738         5.61900        -5.28026
  Br      -18.12754         7.30855        -5.10065
   C      -12.46730         1.81115        -4.78812
   O      -11.42387         2.17174        -5.32932
   C      -12.69389         0.53950        -4.08875
   C      -11.68387        -0.36896        -3.89643
   N      -10.45051        -0.07068        -4.32444
   C       -9.29194        -0.76289        -4.19411
   S       -9.22545        -2.48600        -4.02980
   C       -7.49865        -2.41094        -4.19595
   N       -6.78525        -3.61947        -4.16881
   O       -5.58458        -3.56359        -4.34670
   O       -7.43429        -4.63205        -3.98616
   C       -7.01082        -1.14105        -4.35802
   C       -8.02740        -0.17251        -4.33474
   C       -7.85794         1.25164        -4.49393
   C       -8.68903         2.14866        -3.92440
   C       -8.82786         3.50508        -4.32460
   O       -8.02777         4.05816        -5.26902
   C       -9.86423         4.37392        -4.06701
   C      -11.14225         4.50339        -3.36835
   O      -11.71606         3.75297        -2.61831
   N      -11.63096         5.72778        -3.81034
   C      -10.83537         6.38638        -4.75491
   O      -11.12149         7.42857        -5.28341
   C       -9.68733         5.49563        -4.91987
   C       -8.54353         5.25925        -5.65643
   C       -7.94769         5.93493        -6.76135
   C       -6.88951         5.37552        -7.38584
   C       -6.23494         5.75925        -8.60602
   C       -6.00831         7.14236        -8.95219
   C       -6.38009         8.26698        -8.30188
   S       -5.70238         9.77124        -9.07059
   F       -5.21961        11.29485       -10.04800
   C       -5.10721         8.78011       -10.39306
   C       -5.27262         7.45607       -10.17739
   C       -4.78304         6.39081       -10.99309
   C       -4.99374         5.11070       -10.61870
   C       -5.74385         4.76760        -9.44547
   C       -5.97594         3.36115        -9.20251
   C       -7.09588         2.84365        -8.65446
   C       -7.26466         1.46434        -8.32994
   S       -8.79039         0.84655        -7.73354
   C       -8.20701        -0.75555        -7.53844
   C       -6.88822        -0.83987        -7.91135
   C       -6.37016         0.41841        -8.35796
   O       -5.07456         0.30069        -8.71809
   C       -4.76300        -1.00967        -8.51124
   N       -3.43970        -1.41486        -8.83883
   O       -3.18254        -2.59124        -8.69826
   O       -2.67913        -0.56082        -9.23698
   C       -5.79975        -1.75326        -8.02456
   H      -13.26498         4.37663        -5.73468
   H      -16.68143         1.73548        -3.19185
   H      -15.23520         6.36201        -5.82681
   H      -11.82303        -1.30812        -3.37687
   H      -10.39271         0.86043        -4.78394
   H       -5.96199        -0.92971        -4.46023
   H       -7.05952         1.58444        -5.14213
   H       -9.40273         1.85203        -3.16961
   H      -12.51110         6.10714        -3.49120
   H       -8.46131         6.81268        -7.11782
   H       -6.50290         4.46364        -6.94491
   H       -6.85132         8.32408        -7.34028
   H       -6.92613        10.12329        -9.51328
   H       -4.59097         9.27270       -11.19170
   H       -4.23880         6.63497       -11.89184
   H       -4.61785         4.29810       -11.22257
   H       -5.18776         2.68805        -9.51467
   H       -7.95174         3.47265        -8.45506
   H       -8.86022        -1.52842        -7.18950
   H       -5.76865        -2.79618        -7.78588
*
