# ORCA input file
# SCF done       -172.937898537185          0.000707381312
! CAM-B3LYP def2-SVP def2/J RIJCOSX Grid4 TightSCF
%maxcore 5000
%tddft
    Mode sTDDFT
    Ethresh 5.0
    maxcore 5000
end

%pal
  nprocs 6
  end
* xyz 0 1
   C       -9.64448        -4.24614        -6.05248
   C       -9.45971        -4.98514        -7.19290
   C       -9.41964        -6.39466        -7.22598
   N       -9.36726        -7.53756        -7.31907
   C       -9.29427        -4.44800        -8.48554
   N       -9.16506        -4.07178        -9.56329
   C       -9.88915        -4.78816        -4.72134
   C      -10.08786        -3.71322        -3.82045
   C      -10.35006        -3.90108        -2.48565
   C      -10.42782        -5.21662        -2.01619
   C      -10.22713        -6.28532        -2.92229
   C       -9.95673        -6.09370        -4.27172
   S      -10.36584        -7.82655        -2.13285
   C      -10.68951        -7.02621        -0.61813
   C      -10.69250        -5.67394        -0.69670
  Br      -10.98919        -8.05027         0.92363
   C       -9.96598        -2.43783        -4.54596
   O       -9.99231        -1.32125        -4.06472
   C       -9.70021        -2.80077        -5.95232
   C       -9.36878        -1.91992        -6.94572
   N       -9.56416        -0.58460        -6.94865
   C      -10.49580         0.14708        -6.25841
   S      -12.03427        -0.51845        -5.83161
   C      -12.51115         1.02532        -5.21642
   N      -13.78640         1.13760        -4.64744
   O      -14.12441         2.22837        -4.22699
   O      -14.46734         0.12740        -4.62146
   C      -11.55122         1.99137        -5.34686
   C      -10.37635         1.50905        -5.95937
   C       -9.19820         2.27980        -6.23343
   C       -9.01898         3.56722        -5.86675
   C       -7.84229         4.31907        -6.12135
   S       -6.39733         3.55140        -6.72800
   C       -5.50526         5.00999        -6.55123
   C       -6.24363         6.03342        -6.05417
   C       -5.70914         7.40491        -5.81132
   C       -7.60681         5.65999        -5.82469
   C       -8.58509         6.59581        -5.35633
   C       -9.89997         6.59738        -5.69419
   C      -10.88030         7.49684        -5.20101
   C      -10.72178         8.35323        -4.14861
   C      -11.72731         9.20862        -3.67909
   C      -11.58518        10.03439        -2.59015
   C      -12.55383        10.90892        -2.04257
   C      -12.13778        11.58591        -0.93623
   C      -10.81327        11.28563        -0.54546
   S      -10.10734        10.12116        -1.64155
   C      -10.11181        11.77986         0.53654
   C      -10.55436        12.69398         1.51921
   C       -9.62741        12.96487         2.47697
   C       -8.39430        12.28231         2.30672
   S       -8.46319        11.28203         0.86775
   C       -7.30765        12.37060         3.13435
   C       -6.07550        11.70764         2.99859
   S       -5.64358        10.61806         1.69060
   C       -4.06840        10.30398         2.30269
   C       -3.85481        10.99780         3.47064
   C       -4.98594        11.78140         3.85049
   O       -4.74905        12.44758         4.99979
   C       -3.48325        12.09927         5.35754
   N       -2.96139        12.65455         6.54953
   O       -1.82439        12.33410         6.84291
   O       -3.67116        13.40008         7.18919
   C       -2.88481        11.23125         4.48380
   H      -10.49721        -3.06066        -1.82566
   H       -9.81031        -6.94100        -4.92047
   H      -10.87458        -5.02461         0.14015
   H       -8.86504        -2.28763        -7.83063
   H       -8.98930        -0.04777        -7.58816
   H      -11.70474         2.99740        -5.00336
   H       -8.39472         1.78579        -6.76436
   H       -9.78728         4.08136        -5.30944
   H       -4.47054         5.02256        -6.83310
   H       -4.66790         7.46465        -6.11688
   H       -5.77553         7.65651        -4.75309
   H       -6.28349         8.14135        -6.37151
   H       -8.20238         7.39107        -4.73184
   H      -10.24059         5.89001        -6.43945
   H      -11.84556         7.47162        -5.69073
   H       -9.78125         8.37756        -3.61404
   H      -12.68141         9.21666        -4.18979
   H      -13.53076        11.00546        -2.48269
   H      -12.74455        12.28681        -0.39178
   H      -11.54120        13.11983         1.49506
   H       -9.78326        13.63096         3.30681
   H       -7.38752        13.01515         3.99999
   H       -3.41199         9.64244         1.77728
   H       -1.89661        10.83027         4.57260
*
