# ORCA input file
# SCF done       -192.965680162238          0.000450412499
! CAM-B3LYP def2-SVP def2/J RIJCOSX Grid4 TightSCF
%maxcore 5000
%tddft
    Mode sTDDFT
    Ethresh 5.0
    maxcore 5000
end

%pal
  nprocs 6
  end
* xyz 0 1
   C       -3.51674        -3.43049        18.46925
   C       -2.73644        -4.48547        18.19411
   C       -1.49151        -4.84188        18.81020
   C       -0.92528        -5.96592        18.31546
   C       -1.66709        -6.58902        17.27553
   S       -3.13227        -5.68254        16.95066
   C       -1.33591        -7.72897        16.57939
   C       -0.18183        -8.53437        16.72623
   C       -0.13650        -9.58923        15.86909
   C       -1.24615        -9.69280        14.99132
   S       -2.36475        -8.38077        15.31778
   C       -1.37974       -10.65871        14.01952
   C       -2.41294       -10.86451        13.09345
   C       -3.60825       -10.20161        13.02348
   C       -4.57977       -10.44906        12.03840
   O       -4.38251       -11.33345        11.02302
   C       -5.48628       -11.33078        10.22944
   C       -6.41498       -10.42652        10.74682
   C       -5.84318        -9.86543        11.89697
   O       -6.38625        -8.94429        12.71864
   O       -7.64731       -10.09003        10.27450
   C       -5.57220       -12.14940         9.08163
   C       -4.57832       -12.95592         8.61911
   C       -4.71667       -13.75434         7.46224
   C       -3.69334       -14.42206         6.86481
   C       -3.81108       -15.18054         5.66938
   C       -4.96004       -15.73642         5.20377
   C       -5.06855       -16.37837         3.94704
   O       -6.21074       -17.04530         3.62312
   C       -6.09961       -17.49788         2.34450
   C       -4.86337       -17.10931         1.83789
   C       -4.19766       -16.41198         2.85974
   O       -2.95950       -15.87374         2.78857
   O       -4.32622       -17.33116         0.60771
   C       -7.13438       -18.23086         1.71655
   C       -8.25575       -18.66504         2.34629
   C       -9.36397       -19.31782         1.74103
   C       -9.50281       -19.66578         0.43710
   C      -10.70714       -20.19797        -0.12197
   S      -10.57589       -21.43114        -1.34557
   C      -12.25666       -21.70581        -1.36817
   C      -12.92180       -20.87421        -0.49690
   C      -12.04682       -19.96821         0.18927
   C      -12.61555       -18.96114         1.03583
   C      -13.96980       -19.02984         1.29741
   C      -14.81468       -19.96638         0.68649
   C      -14.32619       -20.86246        -0.23409
   O      -15.05372       -21.75832        -0.93923
   C      -16.44710       -21.80253        -0.73707
   C      -11.80882       -17.87353         1.50683
   C      -11.92747       -17.22657         2.69471
   C      -10.92624       -16.31591         3.09095
   C      -10.76659       -15.80702         4.35271
   C       -9.66858       -14.98779         4.81320
   C       -8.58693       -14.55553         4.07943
   C       -7.61184       -13.67348         4.58087
   N       -6.81063       -12.93150         4.93957
   C       -8.29360       -14.89939         2.74643
   N       -7.95800       -15.13623         1.67239
   C       -9.89078       -14.70620         6.22783
   C      -11.09898       -15.32362         6.63320
   C      -11.69707       -16.02862         5.47884
   O      -12.74040       -16.65056         5.48325
   C      -11.57418       -15.25585         7.91942
   C      -10.81682       -14.54962         8.86035
   C       -9.60510       -13.94768         8.45106
   C       -9.12813       -14.01043         7.14829
   S       -8.82002       -13.13992         9.77690
   C      -10.11895       -13.60404        10.84222
   C      -11.08676       -14.33420        10.24061
  Br      -10.05968       -13.07353        12.64146
   H       -3.23762        -2.72572        19.23247
   H       -4.43654        -3.25510        17.94252
   H       -1.07574        -4.23761        19.59699
   H        0.00725        -6.37647        18.66052
   H        0.58049        -8.31021        17.45059
   H        0.66705       -10.30444        15.83362
   H       -0.54544       -11.34749        13.95638
   H       -2.24388       -11.64235        12.36040
   H       -3.88486        -9.44678        13.74217
   H       -7.26626        -8.72624        12.38478
   H       -7.81309       -10.55927         9.44999
   H       -6.50451       -12.10221         8.53280
   H       -3.63476       -12.97044         9.14646
   H       -5.68903       -13.76911         6.99038
   H       -2.69754       -14.31455         7.27643
   H       -2.90949       -15.32538         5.09178
   H       -5.86204       -15.72265         5.79879
   H       -2.63613       -16.00174         1.88666
   H       -4.99488       -17.71795         0.03263
   H       -6.99021       -18.43474         0.66440
   H       -8.34135       -18.46101         3.40471
   H      -10.19819       -19.51713         2.40068
   H       -8.65677       -19.61458        -0.23472
   H      -12.67700       -22.46423        -1.99582
   H      -14.41334       -18.28812         1.94374
   H      -15.86565       -19.93543         0.92510
   H      -16.81804       -22.57529        -1.40811
   H      -16.91719       -20.84672        -0.98796
   H      -16.69244       -22.06949         0.29531
   H      -10.98406       -17.59481         0.86260
   H      -12.70058       -17.48564         3.40160
   H      -10.18135       -16.07365         2.34357
   H      -12.49996       -15.73709         8.19340
   H       -8.20025       -13.53110         6.88668
   H      -11.95804       -14.70710        10.74732
*
