# ORCA input file
# SCF done       -162.890914480467          0.000908585766
! CAM-B3LYP def2-SVP def2/J RIJCOSX Grid4 TightSCF
%maxcore 5000
%tddft
    Mode sTDDFT
    Ethresh 5.0
    maxcore 5000
end

%pal
  nprocs 6
  end
* xyz 0 1
   C       14.66193         4.34763        -9.14897
   C       14.77633         3.32136        -8.29710
   C       15.89732         2.99404        -7.46045
   C       15.72622         1.89299        -6.69978
   C       14.46251         1.25355        -6.86531
   S       13.49447         2.12567        -8.04259
   C       14.00932         0.12630        -6.23540
   C       14.68014        -0.66043        -5.25757
   C       13.96725        -1.71888        -4.81260
   C       12.66933        -1.85657        -5.40362
   S       12.42110        -0.54979        -6.56719
   C       11.78559        -2.85183        -5.15279
   C       10.49270        -3.06243        -5.79062
   C       10.28364        -4.33041        -6.34116
   C        9.14083        -4.64694        -7.05217
   C        8.97958        -6.00897        -7.68107
   N        9.52010        -6.07996        -9.03346
   C        8.18471        -3.65526        -7.23487
   C        8.34535        -2.42062        -6.63889
   C        9.47082        -2.10803        -5.88533
   C        9.48589        -0.79377        -5.13952
   N       10.00617        -0.92279        -3.79504
   C        9.61029        -0.16750        -2.72591
   C        8.41174         0.39245        -2.49617
   C        8.13288         1.19887        -1.31423
   C        9.12132         2.04640        -0.81019
   C        8.90902         2.85270         0.29545
   C        9.97751         3.81398         0.75602
   N        9.91173         5.10588         0.07907
   C        7.66238         2.83261         0.90839
   C        6.67114         1.99699         0.42905
   C        6.88422         1.17831        -0.66940
   C        5.81102         0.21411        -1.09317
   N        6.22846        -1.13857        -0.77824
   C        5.59117        -2.23317        -1.29277
   C        4.38598        -2.26933        -1.88107
   C        3.85600        -3.50005        -2.45442
   C        4.10142        -4.72725        -1.83954
   C        3.69749        -5.92586        -2.40102
   C        4.06546        -7.22648        -1.73973
   N        5.46270        -7.19281        -1.32110
   C        2.98297        -5.90377        -3.59047
   C        2.72572        -4.69838        -4.21396
   C        3.16998        -3.49678        -3.67997
   C        2.96008        -2.23681        -4.48383
   N        4.14642        -1.40801        -4.65433
   C        5.42369        -1.82111        -4.46065
   C        5.89986        -3.08876        -4.55654
   C        7.18773        -3.43717        -4.10945
   C        7.66173        -4.71688        -4.07531
   C        8.90960        -5.16580        -3.57921
   C        9.09352        -6.51038        -3.64414
   C        7.99329        -7.21676        -4.19339
   S        6.72506        -6.09346        -4.65284
   C        7.84780        -8.57361        -4.34527
   C        8.78247        -9.59502        -4.03302
   C        8.34613       -10.85166        -4.27889
   C        7.01644       -10.92647        -4.81048
   S        6.36611        -9.28744        -4.97365
   C        6.32580       -12.02568        -5.14551
   H       15.46666         5.05061        -9.27283
   H       13.77261         4.50292        -9.73180
   H       16.78272         3.60483        -7.47047
   H       16.46288         1.50542        -6.01832
   H       15.66986        -0.41126        -4.91877
   H       14.31277        -2.42345        -4.07606
   H       12.12633        -3.65008        -4.50322
   H       11.05371        -5.08021        -6.21780
   H        7.92116        -6.27511        -7.73228
   H        9.49415        -6.76309        -7.07956
   H        9.04834        -5.40724        -9.62917
   H       10.50620        -5.83877        -9.02449
   H        7.29014        -3.86804        -7.80125
   H        7.56238        -1.68321        -6.74055
   H        8.46354        -0.41965        -5.08071
   H       10.07349        -0.05327        -5.70722
   H       10.96665        -1.22929        -3.77137
   H       10.36147        -0.10893        -1.94626
   H        7.60577         0.27470        -3.20519
   H       10.07876         2.08498        -1.31141
   H       10.97035         3.39699         0.56651
   H        9.88000         4.00206         1.82839
   H        9.00502         5.53249         0.24327
   H       10.00433         4.97219        -0.92329
   H        7.47281         3.46322         1.76513
   H        5.71067         1.97249         0.92395
   H        5.60471         0.31305        -2.17116
   H        4.88005         0.42990        -0.55719
   H        7.22472        -1.23657        -0.65669
   H        6.15778        -3.14871        -1.19464
   H        3.81095        -1.36516        -2.01714
   H        4.63581        -4.75585        -0.90314
   H        3.83997        -8.05606        -2.43012
   H        3.45812        -7.36648        -0.83695
   H        6.04844        -7.01355        -2.13091
   H        5.73220        -8.09434        -0.94118
   H        2.65087        -6.82664        -4.04248
   H        2.19533        -4.69313        -5.15667
   H        2.19758        -1.61540        -3.99918
   H        2.57569        -2.51396        -5.47421
   H        3.98527        -0.42150        -4.53090
   H        6.11725        -1.02753        -4.20948
   H        5.26179        -3.88946        -4.89424
   H        7.82473        -2.66070        -3.70825
   H        9.62505        -4.46823        -3.17904
   H        9.97585        -7.02185        -3.30184
   H        9.75396        -9.35958        -3.63402
   H        8.91697       -11.74666        -4.10396
   H        6.75995       -13.00294        -5.02953
   H        5.32768       -11.96850        -5.53884
*
