# ORCA input file
# SCF done       -170.270846375251          0.000443416514
! CAM-B3LYP def2-SVP def2/J RIJCOSX Grid4 TightSCF
%maxcore 5000
%tddft
    Mode sTDDFT
    Ethresh 5.0
    maxcore 5000
end

%pal
  nprocs 6
  end
* xyz 0 1
   C       10.79910        -2.07363         4.81744
   C       10.93328        -2.96680         3.82837
   C       12.14922        -3.48264         3.26645
   C       11.97163        -4.37823         2.27082
   C       10.60969        -4.64833         1.95926
   S        9.55399        -3.70394         2.99705
   C       10.12235        -5.50153         1.00206
   C       10.83926        -6.33328         0.10601
   C       10.05172        -7.05876        -0.72906
   C        8.65504        -6.86694        -0.55105
   S        8.39707        -5.68206         0.72469
   C        7.66968        -7.45073        -1.29914
   C        6.27495        -7.34599        -1.14910
   C        5.45102        -6.99010        -0.09806
   C        4.07954        -6.97334        -0.42542
   O        3.31936        -6.61760         0.64651
   C        4.22197        -6.38966         1.71719
   N        5.54824        -6.77387         1.25821
   C        3.75801        -7.31953        -1.71348
   S        5.25422        -7.71376        -2.55379
   C        2.48140        -7.31867        -2.31795
   C        2.21780        -7.67260        -3.59829
   C        0.93325        -7.58276        -4.18374
   C        0.52394        -7.90184        -5.45807
   C       -0.82781        -7.61732        -5.73040
   O       -1.14589        -7.92482        -7.01878
   C        0.04439        -8.42466        -7.61721
   N        1.07162        -8.49725        -6.58390
   C       -1.53044        -7.06805        -4.68794
   S       -0.44865        -6.92524        -3.30855
   C       -2.86537        -6.59802        -4.60652
   C       -3.74127        -6.62381        -5.63218
   N       -5.00180        -6.10070        -5.50578
   C       -5.94928        -6.02743        -6.45399
   S       -5.70893        -6.71196        -8.02724
   C       -7.29418        -6.15017        -8.49367
   N       -7.70169        -6.44011        -9.79616
   O       -8.80440        -6.06561       -10.15072
   O       -6.90514        -7.05710       -10.48852
   C       -7.95323        -5.47829        -7.50409
   C       -7.20574        -5.39061        -6.31092
   C       -7.61826        -4.74129        -5.11516
   C       -8.75459        -4.01260        -4.94235
   C       -9.01942        -3.39708        -3.70216
   C      -10.09109        -2.59409        -3.41890
   C      -10.36577        -1.93669        -2.15845
   C       -9.62025        -2.00576        -1.00656
   C       -9.94825        -1.33933         0.19184
   N      -10.15572        -0.82739         1.19866
   C       -8.42714        -2.73735        -0.84234
   N       -7.44902        -3.30257        -0.62945
   C      -11.59304        -1.16415        -2.32106
   C      -12.07224        -1.33884        -3.64253
   C      -11.16132        -2.23970        -4.37865
   O      -11.28088        -2.59985        -5.53121
   C      -13.21187        -0.72790        -4.10485
   C      -13.91463         0.09795        -3.22081
   C      -13.42968         0.26571        -1.90221
   C      -12.27729        -0.35337        -1.43437
   S      -14.44717         1.32869        -0.97728
   C      -15.49443         1.53134        -2.35651
   C      -15.10555         0.83903        -3.45338
  Br      -17.00198         2.63870        -2.21768
   H       11.66496        -1.64916         5.29396
   H        9.83382        -1.75273         5.16375
   H       13.10434        -3.15565         3.63764
   H       12.77186        -4.86193         1.73893
   H       11.91378        -6.36999         0.10919
   H       10.42251        -7.74184        -1.47307
   H        7.99967        -8.02921        -2.15295
   H        3.91807        -7.01142         2.57201
   H        4.16905        -5.32776         2.01299
   H        6.34836        -6.30682         1.65716
   H        1.67333        -6.98302        -1.68005
   H        3.01799        -8.03255        -4.23214
   H        0.32710        -7.76353        -8.45246
   H       -0.16331        -9.42879        -8.01459
   H        2.01518        -8.26652        -6.85300
   H       -3.15950        -6.17782        -3.65384
   H       -3.48382        -7.03968        -6.59382
   H       -5.22254        -5.69555        -4.60250
   H       -8.93865        -5.07229        -7.64091
   H       -6.95603        -4.82150        -4.25988
   H       -9.46068        -3.87267        -5.74463
   H       -8.29405        -3.57438        -2.91847
   H      -13.54992        -0.88061        -5.11784
   H      -11.94984        -0.19184        -0.42109
   H      -15.63451         0.84982        -4.38888
*
