# ORCA input file
# SCF done       -163.372433518959          0.000968225461
! CAM-B3LYP def2-SVP def2/J RIJCOSX Grid4 TightSCF
%maxcore 5000
%tddft
    Mode sTDDFT
    Ethresh 5.0
    maxcore 5000
end

%pal
  nprocs 6
  end
* xyz 0 1
   C        8.80637        -1.97688        -5.27510
   C        8.27644        -1.66960        -4.08363
   C        8.00157        -0.36348        -3.55507
   C        7.45988        -0.36459        -2.31778
   C        7.26263        -1.66176        -1.76473
   S        7.79595        -2.89034        -2.89365
   C        6.73775        -1.97323        -0.53438
   C        6.27353        -1.08321         0.46770
   C        5.81625        -1.70079         1.58580
   C        5.89302        -3.12006         1.54299
   S        6.56245        -3.63175         0.00179
   C        5.43815        -3.97089         2.51483
   C        5.46675        -5.38821         2.47461
   S        4.02442        -6.20059         2.99301
   C        4.57287        -7.73891         2.39577
   C        5.85046        -7.62558         1.83189
   C        6.39632        -6.30070         1.95328
   C        7.77369        -6.11422         1.67585
   S        8.69271        -4.68672         2.17510
   C        8.47871        -7.12535         1.07192
   C        7.87218        -8.33897         0.73964
   C        6.58397        -8.61839         1.12592
   O        6.06800        -9.82875         0.79239
   C        3.80747        -8.91939         2.69360
   S        4.56650       -10.31661         3.42326
   C        3.05958       -11.12834         3.56070
   C        2.01850       -10.37016         3.11230
   N        0.66918       -10.71921         3.19951
   O       -0.01965       -10.48883         1.99453
   O        0.43890       -12.01415         3.62389
   C        2.44165        -9.10326         2.61961
   N        1.49731        -8.18078         2.09858
   O        1.82819        -7.69210         0.84612
   O        1.44427        -7.08199         3.02400
   C        0.31479        -6.34028         2.90304
   C        0.26297        -5.12210         3.46064
   C       -0.87503        -4.26839         3.41768
   S       -2.28103        -4.76343         2.53192
   C       -3.15512        -3.30252         2.89465
   C       -2.32707        -2.41758         3.60035
   C       -1.05485        -2.98772         3.95400
   C       -0.17694        -2.20488         4.74950
   S        1.37876        -2.79269         5.39726
   C       -0.48981        -0.90343         5.03502
   C       -1.65608        -0.30606         4.54420
   C       -2.56854        -1.03941         3.82746
   O       -3.66848        -0.47784         3.27344
   C       -4.50538        -3.25775         2.49698
   C       -5.57900        -2.66792         3.10959
   C       -6.91439        -2.74484         2.62814
   C       -7.84614        -2.20368         3.45331
   C       -7.30823        -1.66353         4.64868
   S       -5.56756        -1.86195         4.66753
   C       -7.98726        -1.05152         5.67507
   C       -9.38879        -0.83709         5.77948
   C       -9.77653        -0.20895         6.91204
   C       -8.70280         0.12646         7.80214
   S       -7.17216        -0.41358         7.09259
   C       -8.78351         0.74400         8.98893
   H        9.08185        -1.20276        -5.96935
   H        8.97159        -2.99562        -5.57416
   H        8.22533         0.51806        -4.12930
   H        7.19209         0.52263        -1.77176
   H        6.29159        -0.01701         0.33019
   H        5.42461        -1.19337         2.44984
   H        4.85368        -3.52648         3.31199
   H        7.78730        -4.22255         3.03667
   H        9.52392        -6.97666         0.85131
   H        8.42492        -9.09652         0.20922
   H        5.13722        -9.88786         1.03862
   H        3.02765       -12.10218         4.00472
   H       -0.79102        -9.94702         2.20902
   H        0.76746       -12.65508         2.96698
   H        2.72380        -7.30436         0.83998
   H       -0.48960        -6.78724         2.33405
   H        1.14902        -4.76455         3.95972
   H        0.89006        -3.86745         6.01696
   H        0.19254        -0.31784         5.63158
   H       -1.83546         0.74292         4.73269
   H       -3.73457         0.44676         3.54395
   H       -4.74956        -3.88754         1.64839
   H       -7.13472        -3.20518         1.68079
   H       -8.90042        -2.17948         3.24348
   H      -10.06238        -1.16000         5.00536
   H      -10.79317         0.03704         7.16289
   H       -9.73580         1.05216         9.38290
   H       -7.91071         0.94814         9.58124
*
