# ORCA input file
# SCF done       -189.180684037272          0.000557841733
! CAM-B3LYP def2-SVP def2/J RIJCOSX Grid4 TightSCF
%maxcore 5000
%tddft
    Mode sTDDFT
    Ethresh 5.0
    maxcore 5000
end

%pal
  nprocs 6
  end
* xyz 0 1
   C       -0.79913         1.23957         5.02095
   C       -0.59939        -0.11222         5.13065
   C        0.61428        -0.69994         5.54615
   N        1.57244        -1.23824         5.87771
   C       -1.54806        -1.11202         4.82881
   N       -2.25709        -1.98515         4.59665
   C        0.20574         2.26364         5.29079
   C       -0.34499         3.53345         4.98674
   C        0.35710         4.70464         5.13614
   C        1.66919         4.62026         5.61341
   C        2.21182         3.34873         5.91728
   C        1.50091         2.16445         5.76303
   S        3.84458         3.47273         6.49644
   C        3.77812         5.20672         6.32494
   C        2.59458         5.67121         5.85796
  Br        5.27562         6.23941         6.77987
   C       -1.72875         3.35672         4.51882
   O       -2.48725         4.24090         4.15701
   C       -2.00673         1.91907         4.58815
   C       -3.22283         1.33102         4.34873
   C       -4.43906         1.89585         3.93788
   C       -5.60290         1.12579         3.81448
   C       -6.68908         1.86966         3.39863
   C       -6.35518         3.22918         3.17966
   S       -4.72363         3.58507         3.51267
   C       -7.52876         3.90316         2.76690
   C       -8.59751         2.98854         2.73077
   C       -8.10314         1.67742         3.11920
   C       -8.81926         0.51999         3.20244
   C       -8.23584        -0.70187         3.60020
   N       -7.77089        -1.69775         3.92558
   C      -10.19571         0.47091         2.89606
   N      -11.31388         0.43517         2.64490
   C       -9.80357         3.57416         2.35251
   C       -9.66058         4.92589         2.09025
   S       -8.00918         5.48104         2.31561
   C      -10.67436         5.83668         1.70108
   C      -10.52538         7.15999         1.32737
   C      -11.74870         7.75826         1.02875
   C      -12.83897         6.88271         1.18750
   S      -12.35681         5.32190         1.68334
   C      -14.03041         7.58632         0.88824
   C      -13.69565         8.90389         0.52928
   C      -12.24996         9.05332         0.60040
   C      -11.52125        10.17275         0.32247
   C      -10.11480        10.19660         0.42950
   N       -8.97150        10.21596         0.51594
   C      -12.12806        11.37702        -0.09149
   N      -12.62170        12.35598        -0.42738
   C      -14.80965         9.68555         0.23216
   C      -15.99372         8.98134         0.37165
   S      -15.71557         7.31438         0.86744
   C      -17.32022         9.46460         0.17720
   C      -18.43593         8.70871         0.45283
   C      -19.74847         9.14588         0.29924
   C      -20.04876        10.48977        -0.19954
   C      -19.10739        11.39931        -0.53736
   S      -17.42219        11.11182        -0.42964
   C      -21.46722        10.57451        -0.21930
   C      -22.02672         9.37771         0.23864
   C      -23.43906         9.43232         0.23454
   C      -23.89610        10.63190        -0.21159
   S      -22.64710        11.74609        -0.64563
   C      -20.95729         8.46769         0.57152
   C      -21.03505         7.15795         1.08665
   C      -22.16548         6.46714         1.39114
   C      -22.11762         5.14827         1.92716
   N      -20.95910         4.54698         2.14905
   N      -20.85928         3.33610         2.64626
   C      -21.88612         2.60612         2.97334
   C      -23.19659         3.11212         2.79447
   C      -23.31904         4.43817         2.24715
   N      -24.60192         4.71542         2.16140
   O      -25.23988         3.63870         2.62270
   N      -24.41828         2.66263         3.00893
   H       -0.09157         5.65537         4.89451
   H        1.95995         1.22245         6.01149
   H        2.38135         6.71151         5.69295
   H       -3.28999         0.26201         4.51142
   H       -5.61710         0.07226         4.03170
   H      -10.74395         3.06012         2.26484
   H       -9.56771         7.64661         1.27886
   H      -14.77471        10.71904        -0.06202
   H      -18.26596         7.70641         0.82381
   H      -19.35401        12.38472        -0.89987
   H      -24.09949         8.64205         0.53871
   H      -24.91663        10.94432        -0.31711
   H      -20.10171         6.64252         1.27006
   H      -23.15070         6.88022         1.24967
   H      -21.69380         1.62476         3.37576
*
