# ORCA input file
# SCF done       -194.561561243249          0.000382468924
! CAM-B3LYP def2-SVP def2/J RIJCOSX Grid4 TightSCF
%maxcore 5000
%tddft
    Mode sTDDFT
    Ethresh 5.0
    maxcore 5000
end

%pal
  nprocs 6
  end
* xyz 0 1
   C        0.95746        -0.74796         0.97481
   C        1.87849        -1.76177         1.02546
   C        3.12176        -1.73184         0.35787
   N        4.14634        -1.76374        -0.15703
   C        1.74470        -2.91208         1.82716
   N        1.69505        -3.85248         2.48404
   C        1.19030         0.55622         0.35447
   C        0.28297         1.48650         0.89345
   C        0.29778         2.81412         0.51736
   C        1.23223         3.22089        -0.42730
   C        2.12774         2.29730        -0.97975
   C        2.11586         0.96159        -0.59144
  Cl        3.26379         2.81185        -2.15828
  Cl        1.28295         4.86421        -0.92051
   C       -0.61950         0.80050         1.84167
   O       -1.48732         1.28440         2.52937
   C       -0.26976        -0.64304         1.73382
   C       -1.12874        -1.56016         2.26586
   C       -1.24245        -2.93743         1.99427
   C       -0.77684        -3.66117         0.90344
   C       -1.11661        -5.00368         0.97894
   C       -1.85380        -5.31985         2.14190
   S       -2.14700        -3.95643         3.11330
   C       -2.11763        -6.70844         2.13906
   C       -1.55316        -7.27428         0.97973
   C       -0.89924        -6.22079         0.21780
   C       -0.20034        -6.34627        -0.94678
   C       -0.04726        -7.58497        -1.60396
   N        0.06966        -8.59042        -2.14250
   C        0.40958        -5.23061        -1.55892
   N        0.89541        -4.31217        -2.04393
   C       -1.75234        -8.64830         0.88783
   C       -2.46458        -9.13829         1.97318
   S       -2.89175        -7.87616         3.11698
   C       -2.84948       -10.47635         2.22472
   C       -2.63008       -11.60280         1.42176
   O       -1.98059       -11.47838         0.24963
   C       -1.77276       -12.64550        -0.51933
   C       -3.15038       -12.77601         1.98276
   C       -3.76154       -12.57656         3.20486
   S       -3.70103       -10.90548         3.67557
   C       -4.38131       -13.53436         4.04213
   C       -4.93958       -13.30853         5.29034
   C       -5.46428       -14.47156         5.84473
   C       -5.30948       -15.59507         5.01166
   S       -4.50991       -15.21369         3.54723
   C       -5.87402       -16.71819         5.65500
   C       -6.38906       -16.30711         6.90887
   C       -6.13874       -14.88474         7.06836
   C       -6.44794       -14.09272         8.13345
   C       -7.07783       -14.57279         9.30321
   N       -7.57763       -14.92518        10.27211
   C       -6.14286       -12.71401         8.14541
   N       -5.89779       -11.59406         8.15235
   C       -6.98110       -17.33907         7.62107
   C       -6.93194       -18.54813         6.93541
   S       -6.11720       -18.37355         5.36817
   C       -7.37483       -19.84879         7.23784
   C       -8.07046       -20.35432         8.30428
   C       -8.41410       -21.76185         8.44688
   C       -8.03297       -22.80242         7.64042
   C       -8.40901       -24.14713         7.85392
   N       -8.67423       -25.25880         7.95778
   C       -7.20998       -22.72456         6.49617
   N       -6.54493       -22.76669         5.56026
   C       -9.23206       -21.89890         9.64956
   C       -9.36567       -20.63772        10.25219
   C       -8.64800       -19.62193         9.45559
   O       -8.58265       -18.44033         9.71566
   C      -10.08312       -20.45348        11.41636
   C      -10.68863       -21.56044        11.99725
   C      -10.56534       -22.82218        11.40272
   C       -9.83921       -23.00114        10.23045
  Cl      -11.32199       -24.18234        12.12688
  Cl      -11.59022       -21.37876        13.44574
   H       -0.39886         3.51628         0.94729
   H        2.81379         0.27434        -1.04138
   H       -1.86773        -1.14431         2.94451
   H       -0.25748        -3.20669         0.07956
   H       -1.40731        -9.27883         0.09098
   H       -1.23034       -12.31704        -1.40374
   H       -2.72239       -13.09768        -0.81897
   H       -1.17227       -13.37840         0.02667
   H       -3.09018       -13.74881         1.52919
   H       -4.94842       -12.33664         5.74987
   H       -7.43956       -17.24707         8.58974
   H       -7.11135       -20.56477         6.46837
   H      -10.16764       -19.47362        11.85924
   H       -9.76990       -23.98840         9.80489
*
