# ORCA input file
# SCF done       -149.707933006006          0.000401445435
! CAM-B3LYP def2-SVP def2/J RIJCOSX Grid4 TightSCF
%maxcore 5000
%tddft
    Mode sTDDFT
    Ethresh 5.0
    maxcore 5000
end

%pal
  nprocs 6
  end
* xyz 0 1
   C       -0.02083         0.84988        -7.57937
   C       -0.28999         2.12244        -7.98124
   C       -0.47650         2.97890        -6.87884
   C       -0.33931         2.31401        -5.65677
   S        0.01408         0.65695        -5.85722
   C       -0.54586         3.25363        -4.60264
   C       -0.81289         4.50362        -5.16874
   C       -0.77609         4.37672        -6.61973
   C       -0.97863         5.36529        -7.53778
   C       -1.26391         6.69395        -7.15975
   N       -1.49615         7.77515        -6.85606
   C       -0.91541         5.12746        -8.92663
   N       -0.86485         4.94071       -10.05695
   C       -1.03305         5.49876        -4.20903
   C       -0.93087         5.01740        -2.92260
   S       -0.55570         3.30089        -2.89936
   C       -1.09363         5.73969        -1.68194
   C       -0.67834         5.15141        -0.46906
   C       -0.79742         5.78448         0.74423
   C       -1.35808         7.05826         0.74841
   C       -1.78248         7.64731        -0.46660
   C       -1.66206         7.01587        -1.68463
   O       -2.29065         8.86430        -0.17134
   C       -2.15780         8.97258         1.17526
   N       -1.61628         7.94014         1.75662
   C       -2.59814        10.15972         1.85266
   C       -2.42822        10.31950         3.21200
   C       -2.83736        11.47274         3.89805
   C       -3.45020        12.54888         3.28732
   C       -3.66696        12.40625         1.88923
   C       -3.23425        11.22766         1.17247
   N       -3.55849        11.39603        -0.09327
   O       -4.14609        12.58450        -0.17044
   N       -4.22298        13.20904         1.00091
   C       -3.85860        13.74950         4.00890
   C       -3.16406        14.14079         5.17068
   C       -3.51190        15.25129         5.90367
   C       -4.60111        15.99467         5.46217
   C       -5.28804        15.60983         4.28744
   C       -4.93650        14.50549         3.54490
   O       -6.28959        16.50428         4.09260
   C       -6.17110        17.37491         5.13430
   N       -5.19897        17.11724         5.95943
   C       -7.08319        18.45962         5.25200
   C       -7.11074        19.40390         6.25799
   C       -8.14417        20.32172         6.06358
   C       -8.89107        20.06206         4.90397
   S       -8.33274        18.69524         4.05272
   C       -9.91447        21.04907         4.79756
   C       -9.80971        21.92137         5.88603
   C       -8.69881        21.49815         6.72121
   C       -8.26844        22.07460         7.87958
   C       -8.89135        23.21671         8.42624
   N       -9.39449        24.14275         8.87772
   C       -7.17422        21.57280         8.61641
   N       -6.28929        21.17815         9.22902
   C      -10.78822        22.93340         5.86004
   C      -11.59891        22.80924         4.77251
   S      -11.19928        21.46680         3.75455
   H        0.16381        -0.00863        -8.19337
   H       -0.35017         2.42338        -9.01110
   H       -1.24007         6.52605        -4.44415
   H       -0.24228         4.16337        -0.50414
   H       -0.47186         5.32267         1.66141
   H       -2.00618         7.49004        -2.58780
   H       -1.95861         9.51601         3.75726
   H       -2.67655        11.49868         4.96463
   H       -2.30636        13.56424         5.48078
   H       -2.96781        15.54638         6.78531
   H       -5.47013        14.23345         2.65047
   H       -6.40692        19.39453         7.06924
   H      -10.89193        23.70866         6.59684
   H      -12.42479        23.43347         4.49562
*
