# ORCA input file
# SCF done       -269.118571535117          0.000831598720
! CAM-B3LYP def2-SVP def2/J RIJCOSX Grid4 TightSCF
%maxcore 5000
%tddft
    Mode sTDDFT
    Ethresh 5.0
    maxcore 5000
end

%pal
  nprocs 6
  end
* xyz 0 1
   C       -7.82788        -3.13575       -11.21955
   C       -9.12540        -3.16983       -11.64646
   F       -9.56464        -2.27310       -12.53931
   C      -10.01701        -4.14509       -11.15552
   F      -11.28371        -4.15432       -11.59230
   C       -9.59855        -5.07244       -10.24315
   C       -8.26762        -5.06258        -9.78218
   C       -7.36423        -4.07884       -10.27978
   C       -6.02316        -4.05203        -9.83536
   C       -5.59804        -4.98131        -8.92148
   C       -6.50875        -5.95253        -8.42360
   C       -7.80979        -6.00373        -8.83399
   C       -5.82656        -6.82317        -7.44352
   O       -6.33849        -7.72562        -6.82130
   C       -4.43918        -6.29203        -7.34019
   C       -4.30010        -5.20046        -8.29408
   C       -3.14425        -4.53881        -8.61306
   C       -1.87019        -4.79867        -8.06331
   N       -0.79781        -4.95194        -7.68234
   C       -3.06601        -3.50529        -9.57106
   N       -2.93926        -2.65472       -10.33128
   C       -3.51836        -6.60557        -6.38906
   C       -3.50327        -7.69692        -5.45541
   C       -4.04877        -8.95751        -5.73361
   C       -3.97005       -10.00000        -4.83010
   C       -3.33790        -9.80277        -3.60679
   C       -2.79740        -8.52216        -3.32681
   C       -2.84320        -7.49022        -4.22913
   N       -2.26748        -8.51675        -2.05441
   C       -1.60235        -7.40538        -1.43179
   C       -2.47073        -9.72151        -1.43343
   O       -2.07622        -9.96477        -0.31219
   C       -3.15379       -10.61611        -2.42713
   C       -3.43490       -11.93911        -2.20980
   C       -3.64893       -12.95698        -3.29535
   O       -3.64628       -12.82041        -4.49970
   N       -3.77622       -14.17595        -2.67949
   C       -3.96947       -15.40820        -3.39292
   C       -3.71295       -14.04419        -1.30947
   C       -3.49639       -12.68511        -0.97714
   C       -3.47970       -12.33412         0.36912
   C       -3.62842       -13.31414         1.32974
   C       -3.79869       -14.66381         0.99417
   C       -3.84805       -15.02724        -0.35919
   C       -3.89922       -15.67776         2.02885
   C       -4.39604       -15.43166         3.27878
   C       -4.47059       -16.36892         4.31504
   C       -3.96280       -17.73314         4.13814
   C       -3.45103       -18.20496         2.98083
   S       -3.30379       -17.26419         1.55625
   C       -4.15087       -18.36747         5.39491
   C       -4.73535       -17.47527         6.29752
   C       -4.97038       -18.08680         7.55066
   C       -4.55826       -19.38124         7.56643
   S       -3.87656       -19.92255         6.07148
   C       -4.94557       -16.21481         5.62806
   C       -5.54076       -15.03469         6.14764
   C       -5.76780       -14.77627         7.45634
   C       -6.41138       -13.60620         7.98731
   C       -6.31121       -13.34194         9.36338
   C       -6.89415       -12.24020         9.95108
   C       -7.62725       -11.35617         9.16175
   C       -7.76798       -11.65118         7.78297
   C       -7.17086       -12.73341         7.18816
   N       -8.60538       -10.71868         7.20264
   C       -8.97866       -10.67831         5.81605
   C       -9.08479        -9.84076         8.13895
   O       -9.84564        -8.93482         7.87169
   C       -8.43074       -10.19722         9.44507
   C       -8.55167        -9.46661        10.59871
   C       -7.56325        -9.49213        11.72435
   O       -6.54753       -10.14280        11.85479
   N       -7.96640        -8.54174        12.62961
   C       -7.23767        -8.22820        13.82742
   C       -9.14062        -7.94650        12.22900
   C       -9.52972        -8.47365        10.97297
   C      -10.74014        -8.06054        10.42616
   C      -11.48299        -7.10020        11.08095
   C      -11.06891        -6.54798        12.30192
   C       -9.89240        -7.01529        12.90456
   C      -11.86717        -5.56443        12.98385
   C      -12.66971        -4.61728        12.44148
   C      -13.72720        -3.97085        13.26685
   O      -13.83184        -4.00584        14.47063
   C      -14.64262        -3.33935        12.29345
   C      -15.84235        -2.72784        12.51796
   C      -16.57069        -2.21985        11.41926
   C      -16.04108        -2.36032        10.10334
   C      -16.77799        -1.85850         9.01150
   C      -17.98111        -1.24404         9.21649
   C      -18.50287        -1.10414        10.51831
   C      -17.81352        -1.58110        11.59746
   F      -19.68601        -0.49820        10.68920
   F      -18.67972        -0.76734         8.17738
   C      -14.79231        -2.99100         9.90176
   C      -14.09984        -3.46821        10.98263
   C      -12.79859        -4.12293        11.08237
   C      -11.79762        -4.05266        10.15217
   C      -10.46967        -4.45698        10.40929
   N       -9.36288        -4.69479        10.59548
   C      -11.95829        -3.47288         8.87715
   N      -12.05354        -3.01356         7.82961
   H       -7.15804        -2.38382       -11.60656
   H      -10.29314        -5.81190        -9.87648
   H       -5.36683        -3.29143       -10.22588
   H       -8.47890        -6.75342        -8.43973
   H       -2.68290        -5.92328        -6.27623
   H       -4.51397        -9.13241        -6.68822
   H       -4.38100       -10.95980        -5.08809
   H       -2.41373        -6.52682        -4.00058
   H       -0.72872        -7.10802        -2.01458
   H       -1.28438        -7.72915        -0.44138
   H       -2.28003        -6.55439        -1.33591
   H       -3.95579       -15.17411        -4.45682
   H       -4.92965       -15.85833        -3.13191
   H       -3.16674       -16.11195        -3.16527
   H       -3.32220       -11.31356         0.66949
   H       -3.56829       -13.03077         2.36863
   H       -4.00992       -16.05572        -0.64255
   H       -4.77126       -14.43626         3.46977
   H       -3.09511       -19.21714         2.87069
   H       -5.42995       -17.61744         8.40068
   H       -4.61288       -20.07622         8.38153
   H       -5.80616       -14.28706         5.41206
   H       -5.40809       -15.47877         8.19354
   H       -5.74286       -14.02401         9.97850
   H       -6.77402       -12.06405        11.00530
   H       -7.31071       -12.92885         6.13714
   H       -8.09635       -10.55045         5.18585
   H       -9.64437        -9.82618         5.68274
   H       -9.49913       -11.59477         5.52848
   H       -6.33602        -8.83982        13.82901
   H       -7.83311        -8.45644        14.71417
   H       -6.96156        -7.17238        13.83825
   H      -11.08814        -8.46303         9.49118
   H      -12.42943        -6.79132        10.66185
   H       -9.57513        -6.61534        13.85469
   H      -11.88433        -5.62175        14.06800
   H      -16.23162        -2.63441        13.52036
   H      -16.39136        -1.95405         8.00891
   H      -18.22627        -1.46653        12.58753
   H      -14.41654        -3.09133         8.89586
*
