# ORCA input file
# SCF done       -244.365590560697          0.000831550665
! CAM-B3LYP def2-SVP def2/J RIJCOSX Grid4 TightSCF
%maxcore 5000
%tddft
    Mode sTDDFT
    Ethresh 5.0
    maxcore 5000
end

%pal
  nprocs 6
  end
* xyz 0 1
   C       -6.97827         2.91261         2.41656
   C       -7.87776         3.66902         1.71898
   F       -8.10966         4.93898         2.07613
   C       -8.57219         3.12602         0.61925
   F       -9.44955         3.89056        -0.04468
   C       -8.35715         1.83306         0.23214
   C       -7.43811         1.02759         0.93212
   C       -6.73409         1.57552         2.04364
   C       -5.80656         0.78569         2.76127
   C       -5.59269        -0.51256         2.37941
   C       -6.30542        -1.05247         1.27378
   C       -7.20444        -0.31468         0.55958
   C       -5.92172        -2.46397         1.07532
   O       -6.36868        -3.21208         0.23297
   C       -4.96814        -2.77079         2.16954
   C       -4.71987        -1.55204         2.91518
   C       -3.77444        -1.37495         3.89200
   C       -2.86598        -2.36410         4.32434
   N       -2.08648        -3.11481         4.70839
   C       -3.56100        -0.15579         4.56837
   N       -3.34965         0.80704         5.15647
   C       -4.57039        -4.02043         2.56362
   C       -4.68668        -5.23449         1.86007
   C       -4.82089        -5.49619         0.50211
   C       -4.89871        -6.85567         0.23673
   C       -4.82830        -7.65449         1.40161
   S       -4.61536        -6.72704         2.80927
   C       -4.98629        -9.00822         1.02674
   C       -5.14550        -9.07422        -0.36957
   C       -5.07557        -7.72514        -0.91341
   C       -5.15287        -7.36389        -2.22562
   C       -5.33712        -8.31815        -3.24916
   N       -5.49106        -9.09549        -4.07782
   C       -5.03401        -6.02496        -2.65836
   N       -4.91460        -4.94792        -3.03149
   C       -5.34286       -10.37249        -0.83250
   C       -5.34527       -11.29498         0.20078
   S       -5.07969       -10.54761         1.76707
   C       -5.57030       -12.69020         0.10570
   C       -5.66275       -13.60284         1.14120
   C       -5.94883       -14.88644         0.68000
   C       -6.06691       -14.95161        -0.72045
   S       -5.82626       -13.43642        -1.46738
   C       -6.38814       -16.28243        -1.08568
   C       -6.48023       -17.05775         0.08269
   C       -6.20013       -16.20826         1.23042
   C       -6.18824       -16.57318         2.54424
   C       -6.46304       -17.89433         2.95620
   N       -6.68733       -18.96684         3.29331
   C       -5.90483       -15.65131         3.57425
   N       -5.67552       -14.90069         4.41008
   C       -6.82393       -18.38449        -0.17125
   C       -6.99123       -18.62486        -1.52344
   S       -6.71340       -17.18898        -2.49737
   C       -7.36734       -19.84434        -2.14037
   C       -7.50103       -20.10573        -3.49150
   C       -7.91722       -21.41555        -3.72987
   C       -8.10419       -22.15260        -2.54931
   S       -7.75916       -21.24234        -1.14761
   C       -8.54335       -23.45666        -2.89583
   C       -8.62994       -23.54533        -4.29259
   C       -8.23504       -22.26877        -4.86606
   C       -8.17442       -21.93790        -6.18768
   C       -8.50613       -22.85892        -7.20364
   N       -8.77755       -23.61134        -8.02502
   C       -7.77574       -20.65570        -6.62073
   N       -7.45236       -19.61286        -6.97061
   C       -9.07350       -24.79722        -4.72981
   C       -9.33000       -25.65768        -3.68339
   S       -9.00866       -24.90493        -2.12692
   C       -9.81189       -27.01542        -3.73819
   C      -10.16587       -27.69259        -2.56171
   C      -10.63852       -28.98587        -2.57147
   C      -10.76638       -29.65186        -3.78739
   C      -10.41779       -28.97459        -4.96659
   C       -9.94599       -27.68169        -4.96180
   S      -10.67082       -29.99702        -6.36372
   C      -11.26519       -31.28000        -5.33086
   C      -11.70415       -32.49313        -5.80118
   C      -11.62843       -32.86074        -7.14403
   C      -11.90820       -34.08414        -7.70379
   C      -12.14789       -35.38465        -7.14092
   C      -11.74728       -35.87078        -5.91601
   C      -12.00174       -37.18110        -5.46228
   N      -12.18975       -38.22055        -5.01086
   C      -10.96358       -35.18195        -4.97642
   N      -10.30758       -34.68908        -4.16884
   C      -12.73192       -36.21459        -8.20112
   C      -12.67160       -35.50897        -9.41590
   C      -12.10472       -34.16652        -9.16969
   O      -11.87692       -33.29609        -9.98257
   C      -13.11883       -36.06186       -10.59851
   C      -13.64774       -37.34538       -10.56476
   C      -13.72580       -38.04135        -9.36829
   C      -13.26959       -37.49046        -8.17678
   N      -11.21186       -30.92935        -4.01508
   C      -11.50145       -31.88179        -2.97201
   H       -6.45437         3.34469         3.25484
   H       -8.89617         1.43138        -0.61155
   H       -5.29483         1.22688         3.60126
   H       -7.72906        -0.75058        -0.27696
   H       -4.15448        -4.11833         3.55989
   H       -4.85317        -4.72337        -0.24208
   H       -5.49128       -10.65029        -1.86057
   H       -5.53593       -13.32757         2.17294
   H       -6.95296       -19.14663         0.57618
   H       -7.30332       -19.36904        -4.24946
   H       -9.21225       -25.05673        -5.76265
   H      -10.07225       -27.18067        -1.61575
   H      -10.91165       -29.46047        -1.64306
   H       -9.68336       -27.20573        -5.89119
   H      -12.12329       -33.18699        -5.09340
   H      -11.36781       -32.08640        -7.86009
   H      -13.05258       -35.50008       -11.51757
   H      -14.00401       -37.80425       -11.47484
   H      -14.14919       -39.03464        -9.35698
   H      -13.34957       -38.05355        -7.26123
   H      -11.01327       -32.83565        -3.19552
   H      -12.57789       -32.04319        -2.88178
   H      -11.11746       -31.50993        -2.02662
*
