# ORCA input file
# SCF done       -250.524124057000          0.000388502396
! CAM-B3LYP def2-SVP def2/J RIJCOSX Grid4 TightSCF
%maxcore 5000
%tddft
    Mode sTDDFT
    Ethresh 5.0
    maxcore 5000
end

%pal
  nprocs 6
  end
* xyz 0 1
   C       -0.95276        -1.74099        -1.92568
   C       -0.58114        -0.83058        -2.91533
   C       -1.60203        -0.09518        -3.73250
   O       -1.37122         0.28293        -4.84602
   O       -2.79288         0.11835        -3.16013
   C        0.77403        -0.61921        -3.21411
   C        1.18969         0.31828        -4.19352
   N        1.64677         1.06840        -4.92872
   C        1.77033        -1.32098        -2.52539
   C        1.38370        -2.21489        -1.55372
   C        0.03070        -2.42715        -1.23407
   C       -0.04805        -3.42603        -0.16371
   C       -1.21220        -3.81713         0.46380
   C       -2.47210        -3.26287         0.16999
   N       -3.51245        -2.81619        -0.02661
   C       -1.30980        -4.77364         1.49132
   N       -1.46564        -5.54548         2.33059
   C        1.29263        -3.85949         0.11542
   C        2.22166        -3.10529        -0.71514
   O        3.43887        -3.17585        -0.73375
   C        1.63627        -4.83818         1.03581
   C        2.86670        -5.34940         1.40023
   S        4.41869        -4.89818         0.74604
   C        5.25384        -6.08019         1.70449
   C        4.37586        -6.76189         2.57856
   C        3.02363        -6.36688         2.39192
   C        2.00656        -6.94846         3.14890
   C        2.31564        -7.89078         4.11119
   S        1.13838        -8.66618         5.13906
   C       -0.46856        -8.02321         4.53680
   C       -1.58091        -8.68205         5.32922
   C        3.67089        -8.23311         4.33962
   S        4.04362        -9.40409         5.62520
   C        4.94002        -8.30230         6.78256
   C        4.03392        -7.22426         7.34138
   C        4.67878        -7.68687         3.58992
   C        6.62997        -6.23727         1.46929
   C        7.37943        -7.34847         1.75162
   C        8.74334        -7.50742         1.46385
   S        9.38201        -9.11381         1.33335
   C       10.94306        -8.57586         0.77512
   C       10.98825        -7.15896         0.76798
   C        9.75756        -6.56280         1.18354
   C        9.69324        -5.17826         1.37801
   C       10.77069        -4.37298         1.08526
   S       10.58121        -2.65164         1.45224
   C       12.13088        -2.25314         2.36381
   C       11.78571        -1.49410         3.62909
   C       11.93517        -4.94485         0.52248
   S       13.33038        -3.99609        -0.03494
   C       12.53488        -2.93049        -1.30605
   C       13.57154        -1.99090        -1.88638
   C       12.04818        -6.31287         0.41816
   C       11.84261        -9.59294         0.42857
   C       13.08732        -9.47248        -0.13399
   C       13.96533       -10.50021        -0.50457
   S       15.54349        -9.99317        -1.03162
   C       16.10936       -11.61595        -1.27160
   C       15.07961       -12.53633        -0.95970
   C       13.86521       -11.91619        -0.54367
   C       12.75678       -12.73290        -0.29156
   C       12.85060       -14.10531        -0.37331
   S       11.35660       -15.00487        -0.05756
   C       11.26100       -16.15623        -1.49087
   C        9.86625       -16.10564        -2.08107
   C       14.08998       -14.71562        -0.67122
   S       14.34460       -16.47458        -0.67611
   C       13.96723       -16.86781         1.08096
   C       14.13269       -18.35684         1.30357
   C       15.17071       -13.93133        -1.00062
   C       17.40774       -11.89458        -1.69320
   C       18.36161       -10.93784        -1.94697
   C       19.66365       -11.25494        -2.33263
   C       20.72017       -10.38834        -2.50381
   C       21.89989       -10.81951        -3.28419
   O       22.15913       -11.93933        -3.66307
   C       22.67463        -9.57823        -3.54047
   C       22.04622        -8.50365        -2.88608
   C       22.54479        -7.22056        -3.03200
   C       23.68772        -7.01954        -3.80441
   C       24.31871        -8.10296        -4.43635
   C       23.80480        -9.39818        -4.30589
   C       25.50084        -7.93273        -5.20069
   N       26.47436        -7.90907        -5.80329
   C       24.23847        -5.64237        -4.03186
   O       24.80417        -5.33957        -5.04341
   O       24.05783        -4.75772        -3.04291
   C       20.90783        -9.01753        -2.11718
   C       20.32899        -8.34758        -1.06359
   C       19.42357        -8.90627        -0.13989
   N       18.71611        -9.30092         0.67420
   C       20.69253        -7.03634        -0.70134
   N       20.97447        -5.96903        -0.38253
   H       -1.99614        -1.93776        -1.73105
   H       -2.86698        -0.21683        -2.25583
   H        2.81394        -1.16847        -2.75484
   H        0.80346        -5.29104         1.55308
   H        0.98383        -6.64810         2.99852
   H       -0.55163        -8.26422         3.47762
   H       -0.48227        -6.94282         4.67580
   H       -1.55515        -9.76205         5.20287
   H       -2.54145        -8.31127         4.97955
   H       -1.48377        -8.45587         6.38864
   H        5.79611        -7.87961         6.25755
   H        5.29238        -8.97007         7.56719
   H        3.69770        -6.55653         6.54987
   H        4.57012        -6.63773         8.08475
   H        3.16086        -7.67154         7.81043
   H        5.70030        -7.95457         3.80397
   H        7.08587        -5.43820         0.90089
   H        6.87781        -8.23496         2.11482
   H        8.82055        -4.72760         1.82071
   H       12.76454        -1.65778         1.70775
   H       12.62232        -3.19718         2.58805
   H       11.26509        -0.56930         3.39113
   H       12.69868        -1.25107         4.16856
   H       11.14746        -2.09402         4.27408
   H       11.72200        -2.38199        -0.83298
   H       12.13217        -3.59921        -2.06696
   H       13.97918        -1.34351        -1.11310
   H       13.11295        -1.37118        -2.65371
   H       14.39061        -2.55090        -2.33206
   H       12.97968        -6.70355         0.04846
   H       11.47220       -10.58429         0.64200
   H       13.48128        -8.48407        -0.31359
   H       11.79110       -12.31609        -0.06482
   H       11.50316       -17.15709        -1.13588
   H       12.01054       -15.83294        -2.20979
   H        9.12641       -16.39847        -1.33947
   H        9.80226       -16.78840        -2.92567
   H        9.63162       -15.10068        -2.42492
   H       12.94914       -16.54426         1.29217
   H       14.66845       -16.29385         1.68684
   H       13.44215       -18.91768         0.67761
   H       13.93090       -18.59477         2.34565
   H       15.14624       -18.66988         1.06316
   H       16.09791       -14.41290        -1.26710
   H       17.68237       -12.93615        -1.79183
   H       18.07845        -9.89931        -1.84888
   H       19.87316       -12.28508        -2.60143
   H       22.02978        -6.37854        -2.59438
   H       24.28132       -10.23386        -4.79540
   H       23.60957        -5.11643        -2.26401
*
