# ORCA input file
# SCF done       -197.599691099127          0.000576128106
! CAM-B3LYP def2-SVP def2/J RIJCOSX Grid4 TightSCF
%maxcore 5000
%tddft
    Mode sTDDFT
    Ethresh 5.0
    maxcore 5000
end

%pal
  nprocs 6
  end
* xyz 0 1
   C       -0.79200        -8.40313        -6.30164
   C        0.20574        -8.34816        -7.26931
   C        0.92744        -7.12841        -7.54403
   N        1.79115        -7.08191        -8.57080
   C        2.06886        -8.17819        -9.21761
   C        1.46036        -9.43430        -8.84210
   N        0.52837        -9.47814        -7.93408
   C        1.84711       -10.62666        -9.50777
   N        2.18960       -11.56694       -10.06372
   C        2.93647        -8.13168       -10.33888
   N        3.63073        -8.14481       -11.24919
   C        0.69136        -5.95530        -6.79791
   C       -0.31454        -6.02066        -5.82127
   C       -1.06157        -7.24305        -5.58955
   N       -1.96355        -7.08788        -4.61021
   S       -1.86903        -5.59903        -4.04885
   N       -0.69452        -5.04703        -4.98584
   C        1.50125        -4.78543        -7.01585
   N        2.80079        -4.89013        -7.20941
   C        3.27368        -3.62630        -7.31275
   C        2.18351        -2.65395        -7.16803
   C        2.67062        -1.27874        -7.30742
   O        2.03007        -0.24552        -7.26840
   C        4.11514        -1.47870        -7.51684
   C        4.43887        -2.92940        -7.51286
   N        5.76180        -3.11926        -7.73344
   C        6.26482        -1.91974        -7.87854
   C        5.29003        -0.84850        -7.76514
   C        1.03317        -3.37991        -7.00568
   C       -0.27356        -2.83345        -6.93235
   C       -1.43135        -3.45393        -7.24485
   C       -2.67538        -2.76779        -7.21912
   S       -2.68985        -1.05639        -6.91353
   C       -4.40968        -0.94903        -7.18551
   C       -4.93377        -2.20178        -7.46255
   C       -3.96197        -3.22095        -7.45839
   C       -4.46339        -4.60746        -7.75267
   C       -3.46478        -5.63448        -7.87256
   N       -2.70449        -6.48494        -7.96850
   C       -5.29726        -4.49849        -9.04695
   C       -6.52192        -3.60520        -8.81784
   C       -6.36842        -2.61428        -7.64748
   O       -6.82131        -3.28229        -6.47412
   C       -7.06841        -2.42819        -5.38507
   C       -4.90163         0.38336        -7.13746
   C       -6.11156         0.88130        -7.48057
   C       -6.40379         2.27551        -7.47616
   N       -7.64552         2.68528        -7.27651
   C       -7.59520         4.03215        -7.25831
   C       -6.22775         4.51897        -7.50053
   C       -6.19813         5.99360        -7.47221
   O       -5.24942         6.73367        -7.60933
   C       -7.60774         6.34028        -7.21592
   C       -8.42352         5.11355        -7.08733
   N       -9.72293         5.42538        -6.85877
   C       -9.76275         6.73510        -6.84531
   C       -8.47778         7.37080        -7.06751
   C       -5.44747         3.40155        -7.67738
   C       -4.08425         3.28993        -8.07965
   C       -3.28072         4.36280        -8.27170
   C       -1.91570         4.29123        -8.69509
   C       -1.31185         5.45876        -9.22669
   C        0.05267         5.47035        -9.69610
   N        0.57782         6.59968       -10.21871
   C       -0.16719         7.66641       -10.29395
   C       -1.53142         7.65516        -9.82611
   N       -2.05383         6.57330        -9.31667
   C       -2.31372         8.83298        -9.92988
   N       -2.90078         9.80921       -10.04737
   C        0.37250         8.85732       -10.84573
   N        0.77312         9.83469       -11.28768
   C        0.84808         4.33207        -9.62529
   C        0.28498         3.18759        -9.07939
   C       -1.09172         3.14892        -8.61937
   N       -1.39478         1.94337        -8.12039
   S       -0.09679         0.99344        -8.20380
   N        0.90279         2.01234        -8.89618
   H       -1.31054        -9.32542        -6.10168
   H        7.31697        -1.79044        -8.06358
   H        5.50050         0.19824        -7.86075
   H       -0.29887        -1.78356        -6.66174
   H       -1.43273        -4.47909        -7.57632
   H       -5.13980        -4.90487        -6.93756
   H       -5.61403        -5.49077        -9.36944
   H       -4.66052        -4.07908        -9.82961
   H       -7.39020        -4.21962        -8.57715
   H       -6.74026        -3.04858        -9.72877
   H       -7.01182        -1.74452        -7.82686
   H       -7.43887        -3.06101        -4.58145
   H       -7.82488        -1.67615        -5.63599
   H       -6.15779        -1.91474        -5.05518
   H       -4.15518         1.08257        -6.78289
   H       -6.94900         0.24686        -7.72863
   H      -10.69377         7.24806        -6.67679
   H       -8.30064         8.42753        -7.09792
   H       -3.69188         2.30755        -8.29442
   H       -3.66978         5.36559        -8.14691
   H        1.86537         4.35089        -9.97737
*
