# ORCA input file
# SCF done       -235.484285329718          0.000922571335
! CAM-B3LYP def2-SVP def2/J RIJCOSX Grid4 TightSCF
%maxcore 5000
%tddft
    Mode sTDDFT
    Ethresh 5.0
    maxcore 5000
end

%pal
  nprocs 6
  end
* xyz 0 1
   C        4.29736         5.76101         0.73294
   C        4.11195         5.04164        -0.41555
   C        4.61254         5.41007        -1.67895
   N        4.97264         5.63044        -2.74745
   C        3.46000         3.79149        -0.47843
   N        2.98936         2.75211        -0.60661
   C        5.13891         6.93900         0.87485
   C        5.47763         7.09220         2.25267
   C        6.31063         8.08797         2.67498
   C        6.81730         9.01026         1.73101
   C        6.41916         8.90499         0.36631
   C        5.58157         7.84541        -0.05043
   C        6.87320         9.87137        -0.55497
   C        7.71197        10.87527        -0.15363
   C        8.12798        10.96221         1.18363
   C        7.68485        10.05441         2.10736
   C        4.74699         6.08927         3.05099
   O        4.79351         5.90856         4.24383
   C        3.85670         5.39647         2.07105
   C        2.74628         4.74324         2.46846
   C        1.64851         4.36521         1.59794
   C        1.03184         3.10750         1.71856
   C        1.62758         2.14455         2.65805
   O        2.74597         2.26985         3.10470
   C        0.75619         0.98937         3.02983
   C        0.77667        -0.24582         2.47623
   S       -0.39435        -1.29456         3.19015
   C       -0.89949        -0.06527         4.26475
   C       -0.20418         1.10073         4.08570
   C       -0.37977         2.37537         4.79765
   O        0.07696         3.40806         4.34175
   C       -1.14195         2.35027         6.06881
   C       -1.99745         3.41325         6.35047
   C       -2.71615         3.43522         7.53027
   C       -2.56769         2.40974         8.45036
   C       -1.69317         1.36668         8.19095
   C       -0.98351         1.33092         7.00444
   C       -0.05487         2.79385         0.90632
   C       -0.50320         3.68046        -0.04583
   C        0.11927         4.92555        -0.20002
   C        1.17147         5.25992         0.65136
   C       -0.29816         5.84725        -1.22416
   S        0.73161         7.18065        -1.71043
   C       -1.45180         5.87994        -1.96722
   S       -2.91080         4.94489        -2.06946
   C       -3.46806         6.08046        -3.29901
   N       -2.68477         7.03548        -3.60420
   C       -1.53166         6.97416        -2.88333
   C       -0.41273         7.78683        -2.87120
   C       -0.21668         8.95752        -3.65418
   C        0.92630         9.66029        -3.72615
   C        1.06811        10.88182        -4.50373
   C        2.26073        11.20511        -5.17353
   C        3.40644        10.26450        -5.27515
   O        4.55906        10.64203        -5.28705
   C        3.05736         8.83834        -5.43076
   C        1.98891         8.34661        -6.12672
   S        1.96646         6.63489        -6.15737
   C        3.42385         6.56052        -5.24320
   C        3.89784         7.79453        -4.93345
   C        5.08080         8.07759        -4.07507
   O        4.94597         8.68200        -3.03082
   C        6.38256         7.59916        -4.57688
   C        7.45585         7.49671        -3.69262
   C        8.68732         7.06021        -4.13845
   C        8.86531         6.73628        -5.47420
   C        7.80710         6.84834        -6.36223
   C        6.56904         7.27242        -5.91874
   C        2.38180        12.43470        -5.81844
   C        1.33766        13.33129        -5.83420
   C        0.14212        13.02990        -5.16677
   C        0.01978        11.79785        -4.52838
   C       -0.92835        14.00144        -5.19533
   C       -1.81810        14.29468        -4.21744
   C       -2.89686        15.27196        -4.33579
   C       -3.41526        15.76580        -5.50166
   C       -4.47664        16.69459        -5.56195
   N       -5.32919        17.45429        -5.67645
   C       -2.99722        15.40069        -6.79983
   N       -2.73025        15.14386        -7.88679
   C       -3.38577        15.56506        -2.99682
   C       -2.69691        14.73212        -2.07063
   C       -1.73045        13.87953        -2.78355
   O       -0.99407        13.06089        -2.28200
   C       -2.95474        14.77440        -0.73023
   C       -3.93371        15.66923        -0.24541
   C       -4.62198        16.51361        -1.16464
   C       -4.33219        16.44874        -2.54615
   C       -5.59436        17.40637        -0.66866
   C       -5.87656        17.46138         0.66894
   C       -5.19950        16.62834         1.57262
   C       -4.24900        15.75143         1.12534
   H        6.57069         8.18010         3.71919
   H        5.28031         7.80057        -1.08555
   H        6.53229         9.80606        -1.57726
   H        8.05764        11.61022        -0.86519
   H        8.79391        11.75868         1.48176
   H        7.99045        10.12632         3.14122
   H        2.61711         4.57922         3.53169
   H        1.39972        -0.60289         1.68091
   H       -1.69874        -0.25767         4.95291
   H       -2.09257         4.20922         5.62690
   H       -3.38734         4.25539         7.73717
   H       -3.12502         2.42849         9.37511
   H       -1.56126         0.57940         8.91827
   H       -0.27931         0.53343         6.81934
   H       -0.52955         1.82864         0.99918
   H       -1.32103         3.40590        -0.69379
   H        1.61710         6.24258         0.57585
   H       -4.43120         5.93456        -3.74724
   H       -1.07824         9.23697        -4.24661
   H        1.79472         9.32852        -3.17121
   H        1.22915         8.89917        -6.64345
   H        3.83718         5.61398        -4.95811
   H        7.30548         7.74775        -2.65388
   H        9.51180         6.97366        -3.44606
   H        9.82972         6.39862        -5.82464
   H        7.95018         6.60299        -7.40440
   H        5.75118         7.37020        -6.61681
   H        3.31143        12.66038        -6.31969
   H        1.44399        14.28095        -6.33709
   H       -0.90047        11.54442        -4.02991
   H       -0.97020        14.58752        -6.10664
   H       -2.41858        14.12943        -0.04991
   H       -4.86462        17.10598        -3.21514
   H       -6.11408        18.04453        -1.36812
   H       -6.62385        18.14729         1.03872
   H       -5.43494        16.68545         2.62481
   H       -3.72407        15.10768         1.81586
*
