# ORCA input file
# SCF done       -193.921127185530          0.000585999758
! CAM-B3LYP def2-SVP def2/J RIJCOSX Grid4 TightSCF
%maxcore 5000
%tddft
    Mode sTDDFT
    Ethresh 5.0
    maxcore 5000
end

%pal
  nprocs 6
  end
* xyz 0 1
   C       -4.13803         5.05393        -0.33983
   C       -3.15685         5.81464        -0.91063
   C       -3.41589         6.88991        -1.78679
   N       -3.58664         7.76823        -2.50461
   C       -1.78766         5.70165        -0.58212
   N       -0.68498         5.74407        -0.26578
   C       -5.57114         5.32325        -0.39368
   C       -6.20588         4.64747         0.69214
   C       -7.54988         4.75390         0.91709
   C       -8.33279         5.54549         0.04880
   C       -7.70726         6.20932        -1.04748
   C       -6.31396         6.08530        -1.25438
   C       -8.50218         6.99076        -1.91012
   C       -9.84911         7.11358        -1.70134
   C      -10.46377         6.46034        -0.62217
   C       -9.72195         5.69347         0.23460
   C       -5.20671         3.87061         1.43663
   O       -5.34889         3.20840         2.43692
   C       -3.94363         3.99711         0.63397
   C       -2.96577         3.07345         0.81299
   C       -1.89326         2.76946        -0.06871
   N       -1.80586         3.30529        -1.27722
   C       -0.64509         2.86505        -1.80067
   C        0.06741         2.00418        -0.84519
   C        1.34739         1.54195        -1.41278
   O        2.17792         0.82169        -0.91128
   C        1.34571         2.17513        -2.74941
   C        0.10600         2.96662        -2.94235
   N        0.08250         3.52556        -4.17781
   C        1.19670         3.14309        -4.74697
   C        2.02921         2.28938        -3.91342
   C       -0.74434         1.88410         0.24808
   C       -0.50292         1.10291         1.42517
   C       -1.44604         0.45165         2.13061
   C       -1.21369        -0.36523         3.30082
   C       -2.25510        -1.22900         3.71697
   C       -2.14701        -2.05501         4.80614
   C       -0.95207        -2.00701         5.52399
   C        0.08741        -1.12614         5.12399
   C       -0.01865        -0.30783         4.02001
   O        1.09991        -1.27665         5.99771
   C        0.66848        -2.22254         6.87271
   N       -0.53261        -2.67386         6.62655
   C        1.54193        -2.65338         7.91729
   N        2.69684        -2.04872         8.11517
   C        3.33356        -2.77042         9.06311
   C        2.53071        -3.93919         9.45871
   C        3.23486        -4.73530        10.48229
   O        2.88087        -5.75661        11.02140
   C        4.47929        -3.96109        10.67977
   C        4.49536        -2.77355         9.79017
   N        5.62593        -2.04874         9.98399
   C        6.28719        -2.68669        10.91469
   C        5.62403        -3.88643        11.40057
   C        1.35434        -3.85469         8.76777
   C        0.24874        -4.76210         8.76526
   C       -1.04828        -4.39335         8.70749
   C       -2.14303        -5.29223         8.55883
   C       -2.14364        -6.39996         7.76704
   C       -3.27675        -7.28503         7.55198
   C       -4.32208        -7.47474         8.41560
   C       -5.38951        -8.36510         8.17694
   N       -6.28507        -9.06815         8.03106
   C       -4.45316        -6.82878         9.66376
   N       -4.61723        -6.34936        10.69380
   C       -3.06396        -7.98432         6.29248
   C       -1.78276        -7.62172         5.78739
   C       -1.11946        -6.69629         6.72415
   O        0.00521        -6.25897         6.62245
   C       -1.30653        -8.11692         4.60778
   C       -2.10622        -9.01356         3.86440
   C       -3.39083        -9.37902         4.36146
   C       -3.85710        -8.85043         5.58703
   C       -4.18033       -10.27242         3.60901
   C       -3.72460       -10.78182         2.42359
   C       -2.45959       -10.42158         1.93550
   C       -1.66739        -9.55694         2.64094
   H       -8.00940         4.23954         1.74807
   H       -5.86709         6.58928        -2.09691
   H       -8.02465         7.49420        -2.73761
   H      -10.44895         7.71589        -2.36678
   H      -11.52755         6.56829        -0.47315
   H      -10.18912         5.18876         1.06746
   H       -3.06328         2.46417         1.70323
   H        1.43233         3.46030        -5.74812
   H        2.97292         1.86980        -4.20055
   H        0.54351         0.98295         1.67173
   H       -2.47205         0.46711         1.78615
   H       -3.16818        -1.23700         3.13979
   H       -2.94339        -2.71484         5.10844
   H        0.78571         0.35309         3.74476
   H        7.23892        -2.31733        11.25579
   H        6.00040        -4.54031        12.16206
   H        0.51260        -5.80182         8.90218
   H       -1.30850        -3.34797         8.79927
   H       -3.07445        -4.99288         9.02581
   H       -0.33047        -7.82852         4.24664
   H       -4.83666        -9.13891         5.93454
   H       -5.15273       -10.54850         3.98965
   H       -4.33645       -11.46616         1.85525
   H       -2.11595       -10.83265         0.99807
   H       -0.69217        -9.27618         2.27078
*
