# ORCA input file
# SCF done       -285.493551680639          0.000959027184
! CAM-B3LYP def2-SVP def2/J RIJCOSX Grid4 TightSCF
%maxcore 5000
%tddft
    Mode sTDDFT
    Ethresh 5.0
    maxcore 5000
end

%pal
  nprocs 6
  end
* xyz 0 1
   C        2.60170         0.29929         0.68053
   C        1.52664         1.20963         0.28730
   C        0.96499         1.22649        -0.99004
   C       -0.06543         2.09472        -1.33091
   C       -0.56269         2.98249        -0.38048
   C       -0.03415         2.97488         0.90872
   C        0.98644         2.08869         1.22914
   F        1.48934         2.09374         2.46624
   F       -0.50750         3.81609         1.82704
   F       -1.54200         3.82479        -0.69587
   F       -0.58179         2.06609        -2.55662
   F        1.39130         0.35790        -1.91485
   C        3.74313         0.12695        -0.00850
   C        4.76220        -0.83559         0.44650
   C        4.40711        -2.09980         0.92699
   C        5.36455        -3.02498         1.32336
   C        6.71634        -2.69565         1.25882
   C        7.09611        -1.43816         0.79971
   C        6.12503        -0.53075         0.39335
   F        6.51755         0.67488        -0.02534
   F        8.38301        -1.10227         0.75609
   F        7.63687        -3.57272         1.64646
   F        4.99195        -4.22116         1.77275
   F        3.12124        -2.44740         0.99123
   C        4.04523         0.98900        -1.15825
   S        4.18804         2.68892        -0.85212
   C        4.42269         3.02264        -2.53775
   C        4.33791         1.86055        -3.28846
   C        4.16939         0.70243        -2.49817
   C        4.10842        -0.66564        -3.11736
   N        4.96204        -1.60169        -2.35319
   O        4.43752        -2.57744        -1.87540
   O        6.13203        -1.32295        -2.24391
   C        4.64386        -0.61834        -4.55177
   C        3.91886         0.46898        -5.32931
   C        4.28144         1.85490        -4.77951
   N        3.20524         2.78473        -5.28883
   O        2.47159         3.30418        -4.48780
   O        3.13821         2.88990        -6.48199
   C        4.67770         4.31813        -3.04479
   C        4.62779         5.48092        -2.34843
   C        4.84986         6.71370        -3.00965
   N        4.82086         7.94408        -2.40721
   C        4.68308         8.20700        -0.99499
   C        5.97547         7.91751        -0.23617
   C        5.00250         8.98867        -3.33411
   O        5.01958        10.16182        -3.02329
   C        5.14250         8.31680        -4.60957
   C        5.06371         6.92699        -4.37609
   C        5.18655         6.25364        -5.65176
   O        5.20794         5.06824        -5.93846
   N        5.29716         7.28537        -6.58424
   C        5.45828         7.00822        -7.99300
   C        6.90917         7.16081        -8.44028
   C        5.27576         8.52788        -5.98804
   C        5.33390         9.74143        -6.70040
   C        5.35327        10.96025        -6.08365
   C        5.36687        12.19396        -6.77130
   C        5.26816        12.44184        -8.12849
   C        5.26471        13.84298        -8.34877
   C        5.41993        14.47123        -7.01749
   C        5.47598        13.48133        -6.09240
   C        5.58702        15.83954        -6.78618
   N        5.75824        16.96445        -6.61941
   C        5.13026        14.51286        -9.54285
   C        4.97424        15.92155        -9.71938
   C        4.95553        16.20709       -11.05778
   C        5.07781        14.95994       -11.78862
   C        5.17132        13.93730       -10.89375
   C        5.32526        12.58358       -11.20627
   N        5.44361        11.47086       -11.46846
   C        4.82277        17.51798       -11.65891
   C        4.09866        17.58113       -12.94400
   C        4.57228        18.33937       -14.01581
   C        3.89901        18.39097       -15.23168
   C        2.71408        17.67904       -15.39782
   C        2.21722        16.91976       -14.34200
   C        2.90941        16.87517       -13.13691
   F        2.39334        16.15791       -12.13510
   F        1.07896        16.24163       -14.48686
   F        2.05992        17.72645       -16.55571
   F        4.38453        19.11977       -16.23639
   F        5.71434        19.02088       -13.89256
   C        5.26914        18.65845       -11.09040
   C        6.07866        18.76894        -9.88271
   C        7.19700        17.97128        -9.62413
   C        7.95891        18.13143        -8.47539
   C        7.62687        19.11468        -7.54624
   C        6.53308        19.94026        -7.78897
   C        5.78556        19.76477        -8.94655
   F        4.73592        20.56393        -9.16894
   F        6.21371        20.90079        -6.92304
   F        8.36218        19.27575        -6.45114
   F        9.01721        17.34597        -8.26445
   F        7.57057        17.04134       -10.51095
   H        2.44366        -0.21913         1.61473
   H        3.09010        -1.06806        -3.08177
   H        4.48882        -1.58524        -5.03225
   H        5.71599        -0.40976        -4.52137
   H        2.84091         0.31145        -5.23396
   H        4.17474         0.41911        -6.38719
   H        5.21354         2.22046        -5.22467
   H        4.93979         4.36542        -4.09283
   H        4.38437         5.48219        -1.29533
   H        3.85537         7.61597        -0.59318
   H        4.43371         9.26796        -0.90751
   H        6.26557         6.87445        -0.34199
   H        5.83869         8.13757         0.81871
   H        6.77923         8.54140        -0.61908
   H        4.80262         7.66409        -8.57129
   H        5.13350         5.97390        -8.13570
   H        7.26685         8.17387        -8.27045
   H        6.98971         6.93658        -9.49989
   H        7.54440         6.47157        -7.88913
   H        5.36045         9.69200        -7.77907
   H        5.35372        11.00383        -5.00243
   H        5.15983        11.71372        -8.90736
   H        5.59640        13.59538        -5.03084
   H        4.83670        16.62204        -8.92116
   H        5.11608        14.87342       -12.85922
   H        4.99883        19.60793       -11.53238
*
