# ORCA input file
# SCF done       -204.573936512499          0.000638706221
! CAM-B3LYP def2-SVP def2/J RIJCOSX Grid4 TightSCF
%maxcore 5000
%tddft
    Mode sTDDFT
    Ethresh 5.0
    maxcore 5000
end

%pal
  nprocs 6
  end
* xyz 0 1
   C        2.06144        -1.26475         2.15782
   O        0.91564        -1.53597         2.40848
   C        2.92725        -0.33199         2.91517
   C        4.14998        -0.15665         2.24527
   C        5.10986         0.68714         2.78334
   C        4.83175         1.33584         3.98020
   C        3.61126         1.15585         4.63728
   C        2.64447         0.31720         4.09910
  Br        3.26041         2.05054         6.26258
  Br        6.14359         2.48056         4.71502
   C        4.15125        -0.97032         1.03266
   C        5.18752        -1.06349         0.14391
   C        6.40219        -0.35206         0.26719
   N        7.40722         0.19918         0.30845
   C        5.21272        -1.87008        -1.01547
   N        5.31893        -2.49811        -1.97025
   C        2.88328        -1.68400         0.98278
   C        2.47740        -2.51497        -0.01286
   C        1.32671        -3.34524        -0.00897
   S        0.71047        -4.02231        -1.52293
   C       -0.46686        -4.84298        -0.52070
   N       -0.30359        -4.58479         0.75771
   N        0.66325        -3.77722         1.02729
   C       -1.46412        -5.69501        -1.05741
   C       -2.36989        -6.32267        -0.26318
   C       -3.36226        -7.19016        -0.77922
   N       -4.30342        -7.82895        -0.00493
   C       -4.48592        -7.68268         1.41996
   C       -5.19219        -6.37589         1.77083
   C       -5.14993        -8.64178        -0.77078
   O       -6.05806        -9.30559        -0.30439
   C       -4.66982        -8.48480        -2.12640
   C       -3.57766        -7.58728        -2.09982
   C       -3.09268        -7.43584        -3.45672
   O       -2.19329        -6.77158        -3.92921
   N       -3.93448        -8.26098        -4.22100
   C       -3.72884        -8.43341        -5.63953
   C       -2.99739        -9.73634        -5.95263
   C       -4.87447        -8.89632        -3.44619
   C       -5.84626        -9.78929        -3.94913
   C       -6.73921       -10.41430        -3.13439
   C       -7.70697       -11.33805        -3.57780
   S       -7.90444       -11.74589        -5.25607
   C       -9.17599       -12.87628        -4.88641
   C       -9.43438       -12.89813        -3.51856
   C       -8.59872       -12.05448        -2.78290
   C       -8.66265       -11.91466        -1.29508
   C       -9.52738       -12.99619        -0.65335
   N       -8.72939       -14.25107        -0.43729
   O       -9.30745       -15.29891        -0.58067
   O       -7.58750       -14.11393        -0.09640
   C      -10.77760       -13.31999        -1.46772
   N      -11.66460       -12.11002        -1.51170
   O      -12.43749       -12.03148        -2.42834
   O      -11.55754       -11.31875        -0.60953
   C      -10.45348       -13.78598        -2.88321
   C       -9.87779       -13.57598        -5.89472
   C       -9.45959       -13.87810        -7.15468
   C      -10.45117       -14.17067        -8.22384
   O      -11.62380       -14.41909        -8.08392
   C       -9.69211       -14.02889        -9.48822
   C       -8.33074       -13.81291        -9.20074
   C       -8.14191       -13.87415        -7.75437
   C       -6.96580       -14.16065        -7.11348
   C       -6.91817       -14.52197        -5.75016
   N       -6.87273       -14.86223        -4.65524
   C       -5.71026       -14.19467        -7.75203
   N       -4.66601       -14.19547        -8.22722
   C       -7.42691       -13.62229       -10.23108
   C       -7.89682       -13.65232       -11.53929
   C       -9.24663       -13.88061       -11.81868
   C      -10.15694       -14.07132       -10.78610
  Br       -9.85458       -13.92845       -13.60710
  Br       -6.67135       -13.36933       -12.94978
   H        6.06093         0.85536         2.30526
   H        1.69671         0.16960         4.59305
   H        3.07341        -2.58844        -0.91282
   H       -1.47614        -5.83112        -2.12988
   H       -2.32151        -6.15591         0.80287
   H       -3.51596        -7.74619         1.91981
   H       -5.10154        -8.53020         1.73374
   H       -4.61115        -5.51726         1.44273
   H       -5.33062        -6.31253         2.84623
   H       -6.16783        -6.33909         1.29228
   H       -3.11992        -7.58434        -5.96192
   H       -4.69225        -8.39194        -6.15524
   H       -2.02406        -9.74125        -5.46856
   H       -2.85101        -9.82729        -7.02505
   H       -3.56128       -10.59838        -5.60292
   H       -5.86859        -9.98253        -5.01297
   H       -6.71049       -10.21485        -2.07153
   H       -9.06533       -10.93122        -1.03507
   H       -7.65864       -11.96743        -0.86506
   H       -9.81546       -12.66404         0.35258
   H      -11.36253       -14.09742        -0.95923
   H      -11.37146       -13.79763        -3.47577
   H      -10.07682       -14.81234        -2.84397
   H      -10.91017       -13.83089        -5.67511
   H       -6.37976       -13.44202       -10.04693
   H      -11.20090       -14.24844       -10.99308
*
