# ORCA input file
# SCF done       -206.417152558705          0.000800954432
! CAM-B3LYP def2-SVP def2/J RIJCOSX Grid4 TightSCF
%maxcore 5000
%tddft
    Mode sTDDFT
    Ethresh 5.0
    maxcore 5000
end

%pal
  nprocs 6
  end
* xyz 0 1
   C        1.98013        -3.38996         5.46927
   O        1.85279        -4.44565         4.87339
   C        0.89700        -2.49859         5.91870
   C        1.45311        -1.38769         6.57955
   C        0.61761        -0.40822         7.08927
   C       -0.75677        -0.55419         6.93063
   C       -1.29807        -1.66198         6.27313
   C       -0.46500        -2.64789         5.75982
  Br       -3.16803        -1.83462         6.07213
  Br       -1.89544         0.78366         7.62551
   C        2.91001        -1.51911         6.58319
   C        3.78145        -0.63809         7.16561
   C        3.38298         0.53485         7.84456
   N        3.11979         1.49844         8.40830
   C        5.18705        -0.77026         7.18468
   N        6.33263        -0.81954         7.23857
   C        3.23082        -2.74877         5.88013
   C        4.49346        -3.22434         5.62131
   C        4.90663        -4.39025         4.96852
   S        3.87783        -5.62408         4.30389
   C        5.21361        -6.56721         3.78569
   C        6.45076        -5.96446         4.09602
   C        6.27386        -4.72646         4.77406
   C        7.40546        -3.99257         5.17027
   C        8.65520        -4.48403         4.89213
   C        9.88756        -3.72021         5.30540
   F        9.59835        -2.57064         5.92415
   F       10.65559        -4.42642         6.15000
   F       10.65770        -3.40254         4.25246
   C        8.83045        -5.71885         4.21350
   C       10.13183        -6.20872         3.93668
   N       11.17308        -6.62161         3.70191
   C        7.73376        -6.45500         3.81830
   C        5.02816        -7.81295         3.13848
   S        3.44251        -8.52275         2.85518
   C        4.32135        -9.86720         2.14338
   N        5.61147        -9.68943         2.16774
   N        5.99824        -8.57629         2.70526
   C        3.66470       -11.02181         1.61862
   C        4.36597       -12.06359         1.14144
   C        3.80633       -13.29884         0.64059
   C        2.72239       -13.42925        -0.24436
   C        2.07317       -12.27071        -0.90457
   O        2.34925       -11.11329        -0.81249
   S        0.76590       -12.86050        -1.96969
   C        1.07130       -14.57511        -1.55694
   O        0.36241       -15.44570        -1.96670
   C        2.25094       -14.67598        -0.65989
   C        2.82933       -15.91228        -0.26193
   C        3.90729       -15.77539         0.64610
   C        4.36433       -14.51991         1.03922
   C        5.50958       -14.70300         1.96146
   O        6.17815       -13.89904         2.52798
   O        5.69277       -16.05488         2.09261
   C        4.76768       -16.75591         1.37899
   O        4.72454       -17.94676         1.45468
   C        2.36032       -17.12816        -0.86957
   C        2.73591       -18.39585        -0.59427
   C        2.26865       -19.50989        -1.35198
   C        2.88416       -20.71655        -1.40395
   C        2.16938       -21.93211        -1.89456
   O        1.14477       -21.96637        -2.52743
   C        2.96454       -23.06573        -1.37449
   C        4.13228       -22.58317        -0.75083
   C        4.18096       -21.13058        -0.89456
   C        5.29879       -20.35170        -0.78735
   C        5.37611       -19.00600        -1.20971
   N        5.51568       -17.93286        -1.59093
   C        6.54990       -20.84097        -0.34764
   N        7.57752       -21.20134         0.01009
   C        5.01493       -23.47082        -0.15860
   C        4.72380       -24.82945        -0.20547
   C        3.57046       -25.30216        -0.83985
   C        2.67879       -24.41484        -1.42891
  Br        3.20654       -27.15382        -0.89868
  Br        5.91923       -26.04226         0.61014
   H        0.99581         0.46131         7.60160
   H       -0.87059        -3.50761         5.24958
   H        5.31282        -2.61093         5.96911
   H        7.31039        -3.05194         5.69093
   H        7.84597        -7.39611         3.30374
   H        2.58561       -11.01950         1.65587
   H        5.44480       -12.02625         1.21672
   H        1.66741       -16.99229        -1.68743
   H        3.40162       -18.61714         0.22314
   H        1.33048       -19.41663        -1.88799
   H        5.90913       -23.13810         0.34375
   H        1.78435       -24.76967        -1.91712
*
