# ORCA input file
# SCF done       -183.120432844854          0.000591693809
! CAM-B3LYP def2-SVP def2/J RIJCOSX Grid4 TightSCF
%maxcore 5000
%tddft
    Mode sTDDFT
    Ethresh 5.0
    maxcore 5000
end

%pal
  nprocs 6
  end
* xyz 0 1
   C        3.08337         3.68970        -1.73935
   C        2.68859         2.79619        -0.77867
   C        3.44254         1.66452        -0.39928
   N        4.00550         0.73142        -0.03912
   C        1.47369         2.83224        -0.06098
   N        0.50183         2.77443         0.54834
   C        4.29052         3.57408        -2.54668
   C        4.25796         4.58101        -3.55170
   C        5.25562         4.71605        -4.47413
   C        6.35693         3.83295        -4.43001
   C        6.40102         2.82507        -3.42334
   C        5.35204         2.70983        -2.48284
   C        7.50530         1.94926        -3.38782
   C        8.51723         2.06148        -4.30202
   C        8.47305         3.05465        -5.29205
   C        7.41590         3.92153        -5.35484
   C        3.03404         5.38484        -3.41019
   O        2.69184         6.29142        -4.14001
   C        2.34737         4.86183        -2.19887
   C        1.29792         5.40492        -1.51640
   C        0.45018         6.49655        -1.81822
   S       -0.69046         6.96296        -0.56717
   C       -1.36205         8.20522        -1.55861
   C       -0.72258         8.23581        -2.80519
   C        0.28850         7.27969        -2.94492
   C       -1.09861         9.14228        -3.81303
   N       -1.43027         9.87767        -4.62808
   C       -2.41287         9.06911        -1.15900
   C       -3.03081         8.99525         0.04301
   C       -4.10301         9.79862         0.52074
   S       -4.89011         9.24624         1.97314
   C       -6.02794        10.54637         1.91164
   C       -5.80692        11.36381         0.80972
   C       -4.70512        10.95670         0.03983
   C       -4.22059        11.77942        -1.12072
   F       -2.84825        11.94526        -1.03181
   C       -4.86772        13.16205        -1.13061
   C       -6.37366        13.03348        -0.96836
   C       -6.70038        12.50991         0.42611
   F       -8.01745        12.07724         0.43441
   C       -7.00401        10.71962         2.93169
   O       -7.70585        11.86176         2.98422
   C       -8.55878        11.80779         4.02824
   C       -8.39864        10.59099         4.69029
   C       -7.38725         9.88372         3.98116
   C       -6.89066         8.60777         4.27838
   N       -6.48978         7.56362         4.52950
   C       -9.09616        10.15592         5.82545
   N       -9.66720         9.80669         6.75574
   C       -9.42158        12.90433         4.28214
   C       -9.41151        13.99993         3.47893
   C      -10.24699        15.12242         3.67879
   C      -10.20802        16.24356         2.90064
   C      -11.05835        17.41677         3.01986
   C      -11.99100        17.66140         3.99344
   C      -12.78311        18.82823         4.05424
   N      -13.45839        19.74995         4.16342
   C      -12.29262        16.81287         5.07982
   N      -12.59288        16.18620         5.99394
   C      -10.73220        18.31620         1.91912
   C       -9.67263        17.74300         1.15935
   C       -9.28686        16.45187         1.74816
   O       -8.39005        15.72600         1.36697
   C       -9.15047        18.36726         0.06265
   C       -9.67587        19.61611        -0.33567
   C      -10.73853        20.19518         0.41674
   C      -11.25733        19.52647         1.54891
   C      -11.25711        21.44171         0.01087
   C      -10.75133        22.08668        -1.08487
   C       -9.70502        21.51562        -1.82487
   C       -9.17866        20.30667        -1.45841
   H        5.20399         5.48807        -5.22752
   H        5.41962         1.94073        -1.73016
   H        7.53436         1.18551        -2.62462
   H        9.35794         1.38497        -4.26742
   H        9.28077         3.12931        -6.00461
   H        7.37612         4.68811        -6.11482
   H        1.06068         4.94588        -0.56335
   H        0.88471         7.16437        -3.83197
   H       -2.69390         9.80187        -1.89857
   H       -2.71902         8.21378         0.72680
   H       -4.40225        11.25859        -2.07278
   H       -4.61955        13.66493        -2.06538
   H       -4.44917        13.74645        -0.30807
   H       -6.77390        12.33330        -1.70544
   H       -6.86402        13.99637        -1.10888
   H       -6.64776        13.31612         1.17055
   H      -10.07625        12.82651         5.13894
   H       -8.73668        14.02252         2.63611
   H      -10.95655        15.06315         4.49369
   H       -8.34550        17.91247        -0.49563
   H      -12.06220        19.99202         2.09469
   H      -12.06225        21.87744         0.58392
   H      -11.15493        23.04110        -1.38768
   H       -9.31824        22.03850        -2.68666
   H       -8.37298        19.86247        -2.02450
*
