# ORCA input file
# SCF done       -242.574925520715          0.000680022000
! CAM-B3LYP def2-SVP def2/J RIJCOSX Grid4 TightSCF
%maxcore 5000
%tddft
    Mode sTDDFT
    Ethresh 5.0
    maxcore 5000
end

%pal
  nprocs 6
  end
* xyz 0 1
   C       -4.09422         2.03982        -1.35230
   C       -4.93239         2.42022        -0.33576
   C       -5.94638         1.60794         0.21088
   N       -6.76282         0.98498         0.72326
   C       -4.83398         3.65907         0.31154
   N       -4.76729         4.68187         0.83081
   C       -4.11925         0.74507        -2.01943
   C       -2.92455         0.58974        -2.78146
   C       -2.68191        -0.53287        -3.52007
   C       -3.64476        -1.56673        -3.53640
   C       -4.84787        -1.41282        -2.78733
   C       -5.06912        -0.24118        -2.02753
   C       -5.80504        -2.44712        -2.82174
   C       -5.58611        -3.57996        -3.55774
   C       -4.40105        -3.73093        -4.29325
   C       -3.45075        -2.74593        -4.28228
   C       -2.10127         1.79490        -2.63074
   O       -0.98925         2.01129        -3.05463
   C       -2.93835         2.75930        -1.84269
   C       -2.47347         4.03232        -1.74984
   C       -3.03509         5.27393        -1.33935
   C       -4.25679         5.86271        -1.62762
   N       -5.34408         5.30779        -2.32504
   O       -6.25083         6.05324        -2.64087
   O       -5.32003         4.11100        -2.57552
   C       -4.25261         7.23332        -1.18078
   C       -3.04043         7.51088        -0.64698
   C       -2.22598         6.32489        -0.70187
   C       -0.99763         6.11788        -0.11879
   C       -0.49205         4.85046         0.31417
   C        0.64745         5.04640         1.02503
   C        0.96942         6.44942         0.99861
   N        2.17444         6.94273         1.50066
   O        2.49096         8.09980         1.24518
   O        2.86862         6.19370         2.16919
   C       -0.01456         7.14306         0.30305
   C        0.02390         8.51648        -0.04906
   C       -0.45176         9.03322        -1.21169
   C       -0.16102        10.36637        -1.67687
   C        0.34723        10.47624        -2.98824
   C        0.87731        11.64579        -3.47736
   C        0.91813        12.79474        -2.68441
   C        0.36691        12.73646        -1.42902
   C       -0.21449        11.55565        -0.93381
   N       -0.90163        11.84289         0.22749
   C       -1.81304        10.97786         0.91919
   C       -0.84970        13.19448         0.51867
   O       -1.49823        13.73068         1.37814
   C        0.19667        13.80951        -0.39738
   C        1.49186        14.01459         0.45338
   C        2.69985        13.78264        -0.46306
   O        3.06951        14.48380        -1.37500
   N        3.25719        12.58880        -0.10803
   C        4.41814        12.02710        -0.74245
   C        2.68078        12.07983         1.04705
   C        3.02657        10.94798         1.75254
   C        2.36655        10.70124         2.95661
   C        1.39922        11.58689         3.42448
   C        1.03860        12.70935         2.68932
   C        1.66514        12.93804         1.48381
   C        2.78817         9.53743         3.75352
   C        4.13037         9.42667         4.10979
   C        5.26686        10.35068         3.87917
   O        5.29816        11.41553         3.32748
   O        6.37176         9.79588         4.43442
   C        6.08511         8.54448         5.03443
   C        4.62123         8.34013         4.82754
   C        3.78565         7.31535         5.22518
   C        2.45464         7.40315         4.87361
   C        1.93152         8.48405         4.14264
   C        0.53675         8.47595         3.75658
   C       -0.23054         7.36147         3.68922
   C       -1.62069         7.38043         3.39972
   C       -2.39788         6.26144         3.32260
   C       -3.84767         6.20269         3.22025
   C       -4.69189         7.21508         2.85308
   C       -6.09522         7.08941         2.76741
   N       -7.23997         7.07057         2.69511
   C       -4.27342         8.49609         2.45378
   N       -3.98565         9.54738         2.09065
   C       -4.25605         4.82876         3.47297
   C       -3.08925         4.01450         3.52719
   C       -1.89534         4.86619         3.43981
   O       -0.73786         4.49483         3.44731
   C       -3.16634         2.65446         3.62706
   C       -4.43592         2.03916         3.69530
   C       -5.60595         2.85397         3.70700
   C       -5.49530         4.25820         3.60346
   C       -6.86734         2.22977         3.78560
   C       -6.97228         0.86671         3.83264
   C       -5.82113         0.06568         3.81313
   C       -4.58023         0.63890         3.74986
   H       -1.76928        -0.62944        -4.08930
   H       -5.99506        -0.14414        -1.48284
   H       -6.71564        -2.32671        -2.25358
   H       -6.32573        -4.36621        -3.57805
   H       -4.24542        -4.63052        -4.86955
   H       -2.53699        -2.85597        -4.84769
   H       -1.44677         4.12308        -2.10890
   H       -5.10422         7.88100        -1.26288
   H       -2.75350         8.41463        -0.14973
   H       -1.00992         3.91876         0.19899
   H        1.24215         4.31169         1.53260
   H        0.64819         9.14216         0.57775
   H       -0.88269         8.36124        -1.94432
   H        0.35914         9.58719        -3.60100
   H        1.27517        11.67600        -4.47940
   H        1.35716        13.70770        -3.05309
   H       -2.53207        10.54636         0.22256
   H       -2.35283        11.58362         1.64596
   H       -1.28561        10.17710         1.43743
   H       -0.11648        14.76551        -0.81625
   H        1.48634        15.01965         0.87612
   H        4.71122        12.69757        -1.54916
   H        4.18568        11.04112        -1.14954
   H        5.23327        11.93828        -0.02205
   H        3.77612        10.26343         1.39699
   H        0.94738        11.42096         4.39159
   H        0.28692        13.38622         3.06397
   H        6.36423         8.58791         6.09309
   H        6.68714         7.76964         4.54619
   H        4.15762         6.47017         5.78166
   H        1.78788         6.61383         5.18163
   H        0.10530         9.42733         3.47324
   H        0.20192         6.38996         3.87694
   H       -2.08970         8.35330         3.31163
   H       -2.26840         2.05388         3.64613
   H       -6.39803         4.84751         3.60165
   H       -7.75030         2.85127         3.79039
   H       -7.94289         0.39788         3.87751
   H       -5.92200        -1.00867         3.84631
   H       -3.68987         0.02647         3.73657
*
