# ORCA input file
# SCF done       -228.116202695438          0.000967317048
! CAM-B3LYP def2-SVP def2/J RIJCOSX Grid4 TightSCF
%maxcore 5000
%tddft
    Mode sTDDFT
    Ethresh 5.0
    maxcore 5000
end

%pal
  nprocs 6
  end
* xyz 0 1
   C       -3.18762         1.78595         1.51608
   C       -3.98289         2.55977         2.31568
   C       -5.09091         2.06287         3.03368
   N       -6.00097         1.70731         3.63500
   C       -3.72600         3.92106         2.57661
   N       -3.52502         5.01666         2.85566
   C       -3.23751         0.33848         1.38759
   C       -1.99472        -0.11784         0.85381
   C       -1.74775        -1.44583         0.65180
   C       -2.74875        -2.38960         0.97335
   C       -3.99805        -1.93734         1.49059
   C       -4.22644        -0.55754         1.69273
   C       -4.99037        -2.89032         1.79837
   C       -4.76142        -4.22593         1.60916
   C       -3.53085        -4.67040         1.10232
   C       -2.54642        -3.77213         0.79136
   C       -1.12677         1.03665         0.57360
   O        0.01841         1.05074         0.18871
   C       -1.99266         2.23017         0.81891
   C       -1.67101         3.42983         0.28943
   C       -2.50634         4.58080         0.12226
   C       -3.76549         4.67986        -0.43536
   N       -4.59437         3.65643        -0.93149
   O       -5.59894         3.99197        -1.53121
   O       -4.27569         2.49107        -0.73735
   C       -4.13373         6.07618        -0.54907
   C       -3.11422         6.83420        -0.09074
   C       -2.05297         5.96396         0.35346
   C       -0.90139         6.31770         1.01090
   C       -0.11316         5.48935         1.87589
   C        0.76200         6.27739         2.54750
   C        0.60996         7.64345         2.10763
   N        1.49650         8.63710         2.55686
   O        1.28239         9.80773         2.27556
   O        2.45343         8.26887         3.21576
   C       -0.37984         7.69923         1.13243
   C       -0.77780         8.71140         0.23019
   C       -0.82021        10.05289         0.46969
   C       -1.25654        10.96310        -0.51429
   N       -1.42556        12.30874        -0.27932
   C       -1.07910        13.01029         0.93545
   C        0.43017        13.16173         1.10278
   C       -1.95403        12.97733        -1.39339
   O       -2.26075        14.15467        -1.40542
   C       -2.06766        11.94565        -2.40011
   C       -1.64696        10.72174        -1.83741
   C       -1.78721         9.70958        -2.86262
   O       -1.55148         8.51981        -2.86904
   N       -2.28134        10.40785        -3.99279
   C       -2.47587         9.71527        -5.24538
   C       -3.87110         9.10733        -5.35470
   C       -2.46667        11.73003        -3.71963
   C       -2.96855        12.79295        -4.53399
   C       -3.66473        12.76538        -5.67664
   C       -4.20108        14.01470        -6.32597
   C       -3.82573        15.25640        -5.58242
   N       -2.73320        15.95308        -5.80148
   S       -2.68926        17.20770        -4.76763
   N       -4.08777        16.88599        -4.01884
   C       -4.61937        15.80696        -4.54102
   C       -5.92382        15.19976        -4.10622
   C       -6.50438        14.52021        -5.30490
   C       -5.70200        13.94341        -6.32560
   N       -6.41647        13.35367        -7.25651
   S       -7.99201        13.50556        -6.89262
   N       -7.78732        14.34104        -5.51549
   C       -5.61274        14.15765        -3.07288
   C       -5.44675        14.37653        -1.76131
   C       -5.03432        13.38869        -0.76679
   C       -4.90084        12.04114        -0.96577
   C       -4.39473        11.13137        -0.01545
   N       -3.94494        10.32833         0.67191
   C       -5.21230        11.35647        -2.15804
   N       -5.44887        10.72066        -3.08496
   C       -4.77201        14.09898         0.47034
   C       -5.05704        15.48256         0.28431
   C       -5.55610        15.70634        -1.08306
   O       -5.99569        16.72906        -1.54943
   C       -4.87205        16.39317         1.28446
   C       -4.38453        15.95506         2.53631
   C       -4.11613        14.56892         2.73594
   C       -4.32435        13.64831         1.68619
   C       -3.63669        14.14307         3.99237
   C       -3.42977        15.04120         5.00330
   C       -3.69395        16.40537         4.80584
   C       -4.16170        16.85213         3.59954
   H       -0.80058        -1.77367         0.24964
   H       -5.18489        -0.23765         2.07059
   H       -5.93511        -2.54334         2.19008
   H       -5.52743        -4.94802         1.84905
   H       -3.36755        -5.72803         0.95878
   H       -1.59758        -4.10883         0.40001
   H       -0.66199         3.51788        -0.10562
   H       -5.08222         6.40211        -0.93078
   H       -3.12753         7.89876         0.03462
   H       -0.27368         4.44174         2.03594
   H        1.47109         5.98066         3.29740
   H       -1.10491         8.35425        -0.73877
   H       -0.56980        10.43842         1.44340
   H       -1.50840        12.48642         1.79348
   H       -1.54678        13.99604         0.85357
   H        0.91205        12.19717         1.24052
   H        0.63423        13.77615         1.97518
   H        0.85694        13.64831         0.22894
   H       -1.73261         8.91244        -5.27213
   H       -2.27471        10.41135        -6.06271
   H       -3.99745         8.34110        -4.59436
   H       -3.99692         8.65280        -6.33364
   H       -4.64116         9.85913        -5.20503
   H       -2.77385        13.75400        -4.07079
   H       -3.94780        11.85059        -6.17368
   H       -3.83502        14.05516        -7.35778
   H       -6.57906        15.96973        -3.69355
   H       -5.46148        13.16313        -3.46970
   H       -5.09193        17.43752         1.12051
   H       -4.12508        12.60329         1.86647
   H       -3.43709        13.09194         4.14124
   H       -3.06225        14.70575         5.96127
   H       -3.52693        17.09980         5.61534
   H       -4.36853        17.90055         3.44307
*
