# ORCA input file
# SCF done       -185.486928259102          0.000787320840
! CAM-B3LYP def2-SVP def2/J RIJCOSX Grid4 TightSCF
%maxcore 5000
%tddft
    Mode sTDDFT
    Ethresh 5.0
    maxcore 5000
end

%pal
  nprocs 6
  end
* xyz 0 1
   C        3.19795         3.18048         1.48272
   C        2.90696         4.31625         2.19429
   C        3.87476         5.23444         2.64646
   N        4.61563         6.03367         3.00752
   C        1.60555         4.65277         2.61597
   N        0.56418         4.93822         3.00774
   C        4.52873         2.61710         1.29595
   C        4.39205         1.23032         0.99163
   C        5.48115         0.42673         0.81530
   C        6.77528         0.98392         0.92901
   C        6.91698         2.37231         1.21805
   C        5.77163         3.18049         1.40107
   C        8.21347         2.91517         1.32560
   C        9.31878         2.12574         1.16042
   C        9.17864         0.75892         0.87718
   C        7.93429         0.20035         0.76393
   C        2.96020         0.88437         0.91081
   O        2.46220        -0.20036         0.72146
   C        2.24179         2.18496         1.04552
   C        0.93993         2.28767         0.67071
   C        0.21227         3.45314         0.32910
   S        0.95035         4.92146        -0.25473
   C       -0.58152         5.69741        -0.45535
   C       -1.61923         4.85077        -0.07696
   C       -1.17313         3.57211         0.34002
   O       -1.96190         2.57393         0.74809
   C       -2.96738         5.22651         0.04953
   N       -4.06876         5.46342         0.26461
   C       -0.76125         6.99522        -1.00906
   N        0.09557         8.06020        -0.89599
   C        1.29802         8.13360        -0.10042
   C        0.99872         8.14444         1.39534
   C       -0.41805         9.20956        -1.54498
   O        0.15349        10.27624        -1.56529
   C       -1.66214         8.75841        -2.12502
   C       -1.84621         7.39844        -1.77729
   C       -3.02587         6.92450        -2.47038
   O       -3.51150         5.82106        -2.58448
   N       -3.53265         8.07095        -3.12120
   C       -4.75706         7.96846        -3.87833
   C       -5.97515         8.28863        -3.01504
   C       -2.72407         9.16415        -2.92958
   C       -2.84258        10.48270        -3.44923
   C       -3.91560        11.09508        -3.99929
   C       -3.87869        12.42483        -4.50029
   S       -2.42037        13.39574        -4.64655
   C       -3.47799        14.63360        -5.31984
   N       -4.72617        14.25205        -5.36651
   N       -4.94355        13.05072        -4.92908
   C       -3.02513        15.89703        -5.78088
   C       -1.71990        16.25235        -5.84948
   C       -1.31139        17.51546        -6.34950
   C       -0.01415        17.89290        -6.52702
   C        0.46230        19.16465        -7.04819
   C       -0.29374        20.27228        -7.32874
   C        0.23353        21.48532        -7.82182
   N        0.59477        22.49834        -8.22278
   C       -1.69000        20.38244        -7.15678
   N       -2.81926        20.55723        -7.04306
   C        1.90991        19.07001        -7.19622
   C        2.33566        17.79449        -6.72704
   C        1.16919        17.02064        -6.27431
   O        1.17926        15.90166        -5.80822
   C        3.64828        17.41875        -6.74346
   C        4.61548        18.31688        -7.24590
   C        4.19828        19.59360        -7.72238
   C        2.83258        19.95622        -7.68807
   C        5.17098        20.48034        -8.22794
   C        6.49174        20.12457        -8.26245
   C        6.90121        18.86748        -7.79260
   C        5.98328        17.98314        -7.29442
   H        5.35861        -0.62335         0.59527
   H        5.90413         4.23053         1.61165
   H        8.31591         3.96737         1.54720
   H       10.30765         2.55022         1.24810
   H       10.06149         0.15068         0.74942
   H        7.82073        -0.85154         0.54627
   H        0.39560         1.35523         0.55565
   H       -2.89206         2.84148         0.72620
   H        1.78140         9.07185        -0.38781
   H        1.96204         7.30338        -0.35855
   H        0.37436         8.99877         1.64489
   H        1.92852         8.21838         1.95244
   H        0.48439         7.23730         1.70575
   H       -4.82087         6.92773        -4.21088
   H       -4.69716         8.61625        -4.75522
   H       -6.03967         7.57350        -2.19866
   H       -6.87959         8.21853        -3.61266
   H       -5.90883         9.28818        -2.59098
   H       -1.92806        11.05450        -3.33289
   H       -4.88700        10.63208        -4.07006
   H       -3.80567        16.57177        -6.10756
   H       -0.95105        15.56015        -5.53412
   H       -2.10390        18.20168        -6.61966
   H        3.94307        16.44558        -6.37973
   H        2.55081        20.92862        -8.05920
   H        4.85113        21.44717        -8.58787
   H        7.22897        20.81021        -8.65236
   H        7.94755        18.60344        -7.82777
   H        6.29228        17.01393        -6.93123
*
