# ORCA input file
# SCF done       -146.592229538295          0.000548042526
! CAM-B3LYP def2-SVP def2/J RIJCOSX Grid4 TightSCF
%maxcore 5000
%tddft
    Mode sTDDFT
    Ethresh 5.0
    maxcore 5000
end

%pal
  nprocs 6
  end
* xyz 0 1
   C       -3.81738       -12.24728        -0.03795
   S       -4.22040       -10.61475        -0.45049
   C       -2.65067        -9.96909        -0.01333
   C       -1.88932       -11.02362         0.42885
   C       -2.53857       -12.28069         0.41275
   O       -1.65047       -13.20821         0.87736
   C       -0.51607       -12.54155         1.16083
   S        0.82173       -13.22425         1.75904
   O       -0.62027       -11.22337         0.89922
   C       -2.29055        -8.59998        -0.17218
   C       -1.05185        -8.18196         0.17369
   C       -0.53094        -6.85922         0.04038
   C        0.81384        -6.59625         0.13781
   O        1.32179        -5.31982         0.23489
   C        0.39532        -4.32255         0.12460
   C       -0.99073        -4.59557        -0.07062
   C       -1.73602        -3.46882        -0.18333
   S       -0.75821        -2.05475        -0.05033
   C        0.67068        -2.99559         0.15875
   O       -1.48114        -5.86887        -0.11242
   C        1.81800        -7.61988         0.17878
   C        1.69417        -8.79897        -0.47352
   C        2.53985        -9.92530        -0.31078
   S        2.15833       -11.41611        -1.15971
   C        3.42341       -12.33637        -0.36178
   C        4.09724       -11.49145         0.48132
   C        3.60968       -10.17051         0.51029
   O        4.32556        -9.43966         1.40584
   C        5.27224       -10.33952         1.95731
   O        5.11220       -11.62043         1.37225
   C        3.53444       -13.73294        -0.59476
   S        2.16408       -14.59317        -1.21166
   C        3.01926       -16.10368        -1.15036
   C        4.31196       -15.92711        -0.68218
   C        4.60445       -14.58593        -0.37094
   S        6.16442       -13.94473         0.11758
   C        7.27992       -15.28848         0.36817
   O        8.41554       -15.00753         0.64191
   C        6.88624       -16.74717         0.27420
   O        7.64357       -17.59506         0.65284
   S        5.37935       -17.30458        -0.47730
   C        2.33397       -17.28017        -1.54386
   S        3.03106       -18.87894        -1.70523
   C        1.52866       -19.63506        -2.20821
   C        0.56088       -18.66357        -2.23209
   C        1.00389       -17.37742        -1.87335
   O       -0.05783       -16.52922        -1.93621
   C       -1.11727       -17.27928        -2.31465
   S       -2.60690       -16.69463        -2.51013
   O       -0.77359       -18.57242        -2.50702
   C        1.46287       -21.03385        -2.51678
   C        0.35126       -21.64385        -2.92458
   H       -4.52645       -13.03737        -0.16296
   H       -3.01519        -7.93374        -0.61242
   H       -0.37454        -8.89813         0.61244
   H       -2.79203        -3.38983        -0.33467
   H        1.62130        -2.52361         0.29276
   H        2.71361        -7.39687         0.74045
   H        0.87676        -8.94787        -1.16486
   H        6.28914        -9.97014         1.75612
   H        5.11595       -10.41496         3.04370
   H        2.39128       -21.57420        -2.39989
   H       -0.57462       -21.10756        -3.04367
   H        0.34113       -22.69489        -3.14976
*
