# ORCA input file
# SCF done       -141.246292286572          0.000492354742
! CAM-B3LYP def2-SVP def2/J RIJCOSX Grid4 TightSCF
%maxcore 5000
%tddft
    Mode sTDDFT
    Ethresh 5.0
    maxcore 5000
end

%pal
  nprocs 6
  end
* xyz 0 1
   C       10.80128         8.09684        -7.47025
   O       11.66867         8.65852        -8.31814
   C       11.83652         9.93601        -7.93180
   C       11.08415        10.20836        -6.83715
   C       10.39134         8.99998        -6.51595
   C        9.46229         8.82911        -5.43789
   C        8.78904         7.69443        -5.15304
   C        7.84687         7.61117        -4.09363
   C        7.15042         6.49060        -3.78221
   C        6.17929         6.45533        -2.73682
   C        5.42463         5.35448        -2.39705
   O        4.46572         5.39113        -1.39791
   C        4.21569         6.61950        -0.86867
   C        4.99560         7.75646        -1.22071
   C        4.59427         8.88781        -0.59030
   S        3.25541         8.57894         0.45020
   C        3.23650         6.90836         0.02301
   O        6.02702         7.67130        -2.10627
   C        5.46944         4.10247        -3.07271
   C        4.54172         3.13635        -2.86285
   C        4.44404         1.94439        -3.62746
   C        3.31179         1.16959        -3.82288
   C        3.57561         0.02053        -4.64468
   C        2.70279        -0.97192        -5.08678
   C        3.18245        -1.98487        -5.90543
   C        4.52841        -2.02608        -6.30370
   C        5.39701        -1.03985        -5.89473
   C        4.91736        -0.02629        -5.07736
   S        5.83818         1.31804        -4.47763
   C        2.30028        -2.99388        -6.35856
   N        1.59181        -3.81202        -6.73568
   C        2.01357         1.49023        -3.27978
   S        1.06848         0.22413        -2.55956
   C       -0.13857         1.36951        -2.09397
   N       -1.27407         0.90653        -1.41420
   O       -2.10559         1.72958        -1.07995
   O       -1.34100        -0.29188        -1.20510
   C        0.16726         2.65032        -2.47027
   C        1.38664         2.73515        -3.16803
   C        1.87257         3.99749        -3.68287
   C        2.64067         4.15370        -4.77207
   C        3.27087         5.37781        -5.15273
   C        4.16495         5.53858        -6.16989
   C        4.75209         6.82827        -6.22190
   C        4.27123         7.66946        -5.18535
   S        3.08941         6.84536        -4.20390
   C        4.72386         8.95828        -5.00810
   C        5.68173         9.43829        -5.89753
   C        6.14358         8.60689        -6.94920
   C        5.69936         7.31432        -7.11960
   S        7.30833         9.43758        -7.94385
   C        7.18418        10.84838        -6.94708
   C        6.31028        10.71804        -5.92857
   H       10.54904         7.06889        -7.63645
   H       12.50821        10.53914        -8.50975
   H       11.01759        11.13867        -6.31128
   H        9.29204         9.70638        -4.82677
   H        8.94635         6.80823        -5.75178
   H        7.67644         8.50878        -3.51617
   H        7.31712         5.58707        -4.34496
   H        5.00869         9.87092        -0.66878
   H        2.51822         6.24426         0.45570
   H        6.22285         3.96118        -3.83037
   H        3.77606         3.29717        -2.11885
   H        1.66134        -0.96178        -4.80494
   H        4.86906        -2.83073        -6.93688
   H        6.43129        -1.04636        -6.20054
   H       -0.47761         3.48720        -2.27086
   H        1.58671         4.87156        -3.11087
   H        2.87595         3.30517        -5.40043
   H        4.41337         4.75141        -6.85981
   H        4.35394         9.57765        -4.20616
   H        6.06707         6.69457        -7.92187
   H        7.78273        11.70195        -7.19961
   H        6.10121        11.49339        -5.21334
*
