# ORCA input file
# SCF done       -159.501188642693          0.000363465013
! CAM-B3LYP def2-SVP def2/J RIJCOSX Grid4 TightSCF
%maxcore 5000
%tddft
    Mode sTDDFT
    Ethresh 5.0
    maxcore 5000
end

%pal
  nprocs 6
  end
* xyz 0 1
   C        4.26838         9.51149       -12.60371
   S        3.66831         8.14648       -11.68045
   C        3.08643         7.50216       -13.16242
   C        3.39248         8.36445       -14.21501
   N        4.05279         9.47849       -13.87245
   C        2.89267         7.82065       -15.51531
   C        2.25871         6.53642       -15.06456
   C        2.39359         6.38344       -13.67918
   S        1.68860         4.93068       -13.10935
   C        1.19700         4.50816       -14.74697
   C        1.58619         5.48313       -15.66256
   C        0.50703         3.29768       -14.94008
   C        0.04890         2.83333       -16.14663
   C       -0.62645         1.63041       -16.38376
   C       -0.98254         0.62166       -15.50747
   C       -1.65014        -0.56618       -15.88074
   C       -1.88800        -1.43581       -14.85215
   C       -1.42434        -0.97742       -13.60825
   S       -0.67763         0.59113       -13.78200
   C       -1.49102        -1.60022       -12.36684
   C       -2.01568        -2.86170       -12.04187
   C       -1.90290        -3.17742       -10.71412
   C       -1.28852        -2.17927        -9.93420
   S       -0.85709        -0.81501       -10.93883
   C       -1.03161        -2.23586        -8.57562
   C       -0.42895        -1.25243        -7.80652
   S        0.10755         0.31798        -8.38478
   C        0.72133         0.85887        -6.81343
   C        0.50203        -0.17708        -5.87021
   C       -0.12870        -1.30745        -6.44142
   O       -0.33609        -2.27081        -5.53087
   C        0.15524        -1.77127        -4.36499
   N        0.07844        -2.57115        -3.21170
   O        0.53101        -2.09330        -2.18360
   O       -0.42629        -3.67299        -3.31044
   C        0.67493        -0.50465        -4.50829
   C        1.26526         2.12594        -6.78390
   C        1.88918         2.83863        -5.76642
   C        2.37303         4.15228        -5.90422
   C        2.98229         4.65321        -4.78295
   C        3.01059         3.74965        -3.71055
   S        2.23112         2.25270        -4.15994
   C        3.56269         3.91222        -2.44461
   C        4.23021         5.03373        -1.91890
   C        4.67243         4.85953        -0.63882
   C        4.37554         3.58916        -0.09079
   S        3.50226         2.62402        -1.26445
   C        4.71607         3.14665         1.16395
   C        4.43748         1.89142         1.72446
   S        3.55083         0.59327         0.93383
   C        3.68693        -0.47931         2.26574
   C        4.38415         0.10817         3.29759
   C        4.79940         1.43652         2.98433
   O        5.48118         1.98517         4.00911
   C        5.50761         1.02481         4.97407
   N        6.17344         1.32844         6.18360
   O        6.18311         0.45438         7.03096
   O        6.68401         2.42269         6.29435
   C        4.86604        -0.13064         4.61338
   H        4.78046        10.31020       -12.10736
   H        3.70621         7.65333       -16.22364
   H        2.17498         8.49367       -15.98774
   H        1.38151         5.41054       -16.71467
   H        0.34188         2.71400       -14.04715
   H        0.22018         3.44779       -17.02018
   H       -0.91281         1.44505       -17.41210
   H       -1.93475        -0.74946       -16.90206
   H       -2.38177        -2.38415       -14.96462
   H       -2.45503        -3.50712       -12.78094
   H       -2.24363        -4.10008       -10.27869
   H       -1.31912        -3.13733        -8.05054
   H        1.10627         0.06577        -3.71405
   H        1.20844         2.65844        -7.72661
   H        2.26152         4.69764        -6.82470
   H        3.40677         5.63833        -4.71530
   H        4.36990         5.93378        -2.49004
   H        5.20443         5.60241        -0.07170
   H        5.26429         3.82679         1.80267
   H        3.25342        -1.45587         2.20906
   H        4.76631        -1.00933         5.21594
*
