# ORCA input file
# SCF done       -187.973691458042          0.000661400506
! CAM-B3LYP def2-SVP def2/J RIJCOSX Grid4 TightSCF
%maxcore 5000
%tddft
    Mode sTDDFT
    Ethresh 5.0
    maxcore 5000
end

%pal
  nprocs 6
  end
* xyz 0 1
   C        2.57974        -1.82865         0.14405
   C        3.47433        -0.91927         0.62494
   C        2.93813         0.41372         0.63904
   C        1.66587         0.49042         0.17891
   S        1.08981        -1.06988        -0.28132
   C        3.95767         1.33339         1.14702
   O        3.84904         2.52898         1.34635
   C        5.13636         0.48699         1.41982
   C        4.84819        -0.86932         1.06380
   C        5.74604        -1.95369         1.09904
   N        5.28873        -3.26754         1.29437
   O        6.00857        -4.20147         0.95532
   O        4.17397        -3.42465         1.77124
   N        7.12401        -1.78600         0.92263
   O        7.89260        -2.57513         1.47530
   O        7.52628        -0.83596         0.25558
   C        6.28499         0.90294         2.06364
   C        6.72187         2.17580         2.43556
   S        5.86141         3.67963         2.13281
   C        7.15941         4.59802         2.70795
   C        8.22677         3.83339         3.13269
   N        9.39118         4.41543         3.65956
   O        9.41952         5.62038         3.80201
   O       10.33120         3.67685         3.95193
   C        7.99020         2.43157         3.00271
   N        8.93870         1.51609         3.33221
   C        8.72065         0.21256         3.71528
   S        7.53051        -0.12119         4.97697
   C        7.82011        -1.78828         4.88287
   C        8.80655        -2.09613         3.98341
   N        9.17442        -3.44170         3.75184
   O       10.06604        -3.68204         2.94621
   O        8.59902        -4.29721         4.38839
   C        9.35530        -0.94563         3.30381
   N       10.28245        -1.13799         2.32295
   C       11.05564        -0.26719         1.61498
   C       11.61404        -0.62928         0.41196
   O       12.52757         0.18899        -0.23796
   C       12.81189         1.36319         0.38225
   C       12.20602         1.73822         1.61439
   C       12.62142         2.94431         2.07334
   S       13.76186         3.65154         0.99690
   C       13.67849         2.30269        -0.07442
   O       11.30460         0.92086         2.25119
   C       11.32289        -1.85029        -0.26057
   C       11.97851        -2.24162        -1.38262
   C       11.75990        -3.46316        -2.09774
   C       10.70951        -4.32209        -1.81059
   C       10.58418        -5.53164        -2.50374
   C        9.64944        -6.56328        -2.37672
   C        8.46494        -6.65391        -1.49052
   C        8.81185        -6.51266         0.01986
   N        8.97897        -5.14233         0.43665
   C        7.38330        -5.64092        -1.93468
   N        6.10601        -6.02364        -1.37239
   C       10.01747        -7.57353        -3.34325
   C        9.45159        -8.75740        -3.64803
   C       10.02586        -9.65272        -4.68926
   C       11.20827        -9.08837        -5.40956
   C       11.76151        -7.90127        -5.09539
   C       11.20639        -7.10720        -4.06477
   C       11.54311        -5.86974        -3.54330
   C       12.58196        -4.96279        -3.84592
   C       12.67567        -3.80116        -3.14628
   C       10.43339       -10.95283        -4.02197
   C        9.91528       -12.13045        -4.30926
   H        2.66735        -2.89102         0.04386
   H        1.03585         1.35069         0.07269
   H        6.98993         0.12603         2.31345
   H        7.12661         5.67008         2.73509
   H        9.85958         1.92681         3.52060
   H        7.26626        -2.48775         5.47784
   H       10.35932        -2.12985         2.07220
   H       12.31779         3.44723         2.96838
   H       14.26480         2.27815        -0.96852
   H       10.54196        -2.46740         0.15233
   H       12.76449        -1.60066        -1.75895
   H        9.99426        -4.10524        -1.03273
   H        8.02039        -7.64590        -1.61315
   H        9.74697        -7.05183         0.19750
   H        8.01286        -7.02469         0.57420
   H        8.08837        -4.70005         0.63658
   H        9.56010        -5.06119         1.26187
   H        7.30326        -5.68925        -3.02575
   H        7.71429        -4.62999        -1.66283
   H        5.34858        -5.53319        -1.83266
   H        6.06968        -5.78912        -0.38543
   H        8.57612        -9.12556        -3.13119
   H        9.23957        -9.89294        -5.41850
   H       11.61935        -9.70774        -6.19251
   H       12.62476        -7.53593        -5.63283
   H       13.29079        -5.20113        -4.62551
   H       13.46793        -3.10037        -3.36848
   H       11.20862       -10.84595        -3.27629
   H        9.14241       -12.25234        -5.05066
   H       10.24490       -13.02747        -3.81339
*
