# ORCA input file
# SCF done       -156.744255529661          0.000793278876
! CAM-B3LYP def2-SVP def2/J RIJCOSX Grid4 TightSCF
%maxcore 5000
%tddft
    Mode sTDDFT
    Ethresh 5.0
    maxcore 5000
end

%pal
  nprocs 6
  end
* xyz 0 1
   C        0.81614         8.44700         2.21710
   C        0.51517         8.90749         3.47203
   C        1.43212         9.58139         4.30622
   N        2.13262        10.13915         5.02404
   C       -0.73021         8.75028         4.11639
   N       -1.70642         8.64522         4.71152
   C        2.12290         8.51972         1.57362
   C        2.05587         7.83868         0.33241
   C        3.13208         7.72600        -0.51315
   C        4.33760         8.31251        -0.11358
   C        4.39614         8.99399         1.12583
   C        3.30578         9.10855         1.98005
   S        5.97757         9.65103         1.41850
   C        6.53129         9.00890        -0.10501
   C        5.58212         8.33662        -0.79937
  Br        8.30731         9.28838        -0.63635
   C        0.68955         7.33354         0.13132
   O        0.25846         6.77845        -0.86656
   C       -0.07435         7.72850         1.32259
   C       -1.43168         7.59645         1.46666
   C       -2.31213         6.79079         0.72423
   S       -4.01668         7.23383         0.72995
   C       -4.45024         5.86750        -0.25165
   C       -3.33290         5.08855        -0.51708
   C       -2.13550         5.60689         0.00978
   S       -0.72575         4.63370        -0.21142
   C       -1.53608         3.30503        -1.02302
   S       -0.75277         1.95677        -1.48249
   S       -3.24294         3.57098        -1.35363
   C       -5.76866         5.67662        -0.70056
   S       -6.22383         4.37449        -1.76681
   C       -6.87525         6.47402        -0.43092
   N       -7.02342         7.58715         0.33062
   C       -8.22576         8.01003         0.29090
   S       -9.36288         7.09848        -0.69837
   C       -8.05533         6.03473        -1.09043
   C       -7.89287         4.90725        -1.87385
   C       -8.84236         4.25790        -2.69048
   C       -8.56844         3.15092        -3.42587
   C       -9.46844         2.51637        -4.30728
   S      -11.08380         3.09925        -4.63367
   C      -11.38951         1.83206        -5.79458
   C      -10.29068         0.99944        -5.90197
   C       -9.22067         1.38721        -5.06782
   S       -7.79185         0.40201        -5.11267
   C       -8.41537        -0.75968        -6.27961
   S       -7.55030        -2.03933        -6.77855
   S      -10.04118        -0.43331        -6.86109
   C      -12.62415         1.76596        -6.49217
   S      -13.99156         2.76809        -6.05715
   C      -15.00064         2.14147        -7.29300
   C      -14.33246         1.19420        -8.02827
   C      -12.99233         0.98942        -7.56876
   O      -12.36167         0.07211        -8.32983
   C      -13.27863        -0.31633        -9.25864
   N      -12.87150        -1.29195       -10.20947
   O      -13.70685        -1.62500       -11.02590
   O      -11.73830        -1.70705       -10.13988
   C      -14.48352         0.31509        -9.13886
   H        3.04782         7.20036        -1.45128
   H        3.40070         9.64221         2.91090
   H        5.75082         7.87707        -1.75612
   H       -1.92192         8.20722         2.21472
   H       -8.56578         8.87710         0.82182
   H       -9.82935         4.70190        -2.72544
   H       -7.58344         2.70381        -3.36714
   H      -16.00205         2.50231        -7.40374
   H      -15.34027         0.16469        -9.76230
*
