# ORCA input file
# SCF done       -172.834885338755          0.000528964993
! CAM-B3LYP def2-SVP def2/J RIJCOSX Grid4 TightSCF
%maxcore 5000
%tddft
    Mode sTDDFT
    Ethresh 5.0
    maxcore 5000
end

%pal
  nprocs 6
  end
* xyz 0 1
   C       -5.98140        -3.64334         2.44133
   C       -6.30577        -3.46171         3.75743
   C       -6.19136        -4.46530         4.74428
   N       -6.12579        -5.24309         5.58521
   C       -6.76489        -2.25201         4.32369
   N       -7.12592        -1.30448         4.86155
   C       -5.42578        -4.85481         1.85912
   C       -5.07125        -4.59362         0.51265
   C       -4.50897        -5.54531        -0.30429
   C       -4.28725        -6.81703         0.23240
   C       -4.65052        -7.07192         1.57817
   C       -5.21755        -6.11020         2.40349
   S       -4.29457        -8.70924         2.03641
   C       -3.66853        -9.02471         0.43953
   C       -3.72348        -7.96002        -0.39646
  Br       -3.00383       -10.72828         0.02710
   C       -5.38817        -3.19353         0.17293
   O       -5.17496        -2.65010        -0.88591
   C       -6.05504        -2.63467         1.38624
   C       -6.78610        -1.49871         1.44916
   C       -6.90486        -0.45667         0.44477
   C       -5.90180        -0.01443        -0.33323
   C       -8.17822         0.15956         0.39492
   C       -9.27575         0.66914         0.37550
   C      -10.53262         1.27166         0.35283
   C      -10.98417         1.99241        -0.69408
   C      -12.26330         2.61251        -0.74584
   S      -13.37947         2.57436         0.58558
   C      -14.56134         3.48936        -0.29106
   C      -14.10635         3.79376        -1.55732
   C      -12.80637         3.31422        -1.81015
   S      -11.88523         3.51599        -3.29413
   C      -12.78305         4.57074        -4.38937
   O      -12.25079         4.83979        -5.43003
   C      -14.16938         5.11479        -4.10164
   O      -14.69880         5.81270        -4.92183
   S      -15.10455         4.75277        -2.64900
   C      -15.87467         3.79465         0.25351
   C      -16.99228         3.45295        -0.48299
   C      -18.27391         3.75675        -0.03788
   C      -18.48087         4.44281         1.14317
   C      -17.35313         4.75415         1.96134
   C      -16.04106         4.44204         1.50844
   C      -14.96940         4.86406         2.32262
   C      -15.22252         5.48703         3.51523
   C      -16.55817         5.66733         3.90252
   N      -17.57211         5.32754         3.15700
   C      -19.81991         4.80536         1.53457
   C      -20.23178         5.90023         2.20752
   C      -19.54340         7.11210         2.62069
   C      -18.51567         7.73494         1.96784
   C      -17.93342         8.94545         2.39670
   N      -17.41069         9.91547         2.71818
   C      -17.92702         7.26386         0.77651
   N      -17.42075         6.95017        -0.20472
   C      -20.31141         7.68195         3.72023
   C      -21.55438         7.00446         3.81378
   C      -21.59675         5.92168         2.81276
   O      -22.51160         5.17473         2.56017
   C      -22.51634         7.35138         4.73207
   C      -22.23509         8.40642         5.60585
   C      -20.98351         9.06350         5.51741
   C      -20.01396         8.71927         4.58426
   S      -20.84092        10.32747         6.70052
   C      -22.44400         9.96709         7.28550
   C      -23.05514         8.95047         6.63214
  Br      -23.15644        10.96490         8.70392
   H       -4.24730        -5.31354        -1.32486
   H       -5.48160        -6.35386         3.41898
   H       -3.38110        -7.97879        -1.41497
   H       -7.41767        -1.34297         2.31660
   H       -4.90908        -0.41794        -0.26740
   H       -6.06483         0.79029        -1.02977
   H      -11.15461         1.12945         1.22906
   H      -10.36487         2.11825        -1.57211
   H      -16.87097         2.93321        -1.42106
   H      -19.12158         3.49380        -0.65253
   H      -13.95198         4.69992         2.00240
   H      -14.42161         5.82746         4.15174
   H      -16.80453         6.11808         4.85562
   H      -20.59919         4.09030         1.28876
   H      -23.45727         6.82560         4.77527
   H      -19.07319         9.24374         4.55624
   H      -24.04364         8.59743         6.86269
*
