# ORCA input file
# SCF done       -167.322270784150          0.000366139805
! CAM-B3LYP def2-SVP def2/J RIJCOSX Grid4 TightSCF
%maxcore 5000
%tddft
    Mode sTDDFT
    Ethresh 5.0
    maxcore 5000
end

%pal
  nprocs 6
  end
* xyz 0 1
   C       -1.14766        -1.26121        -1.35210
   C       -1.58350        -2.56571        -1.24217
   C       -0.74236        -3.68972        -1.33489
   N       -0.11394        -4.65029        -1.39953
   C       -2.91165        -2.97642        -1.02276
   N       -3.96364        -3.40732        -0.84797
   C        0.24263        -0.86317        -1.57887
   C        0.30335         0.54978        -1.63171
   C        1.47400         1.23485        -1.83761
   C        2.64731         0.48841        -2.00050
   C        2.57731        -0.92125        -1.94518
   C        1.39005        -1.61489        -1.73591
   S        4.14062        -1.64836        -2.17155
   C        4.85513        -0.06646        -2.33629
   C        3.97252         0.95349        -2.22698
  Br        6.70133         0.08879        -2.63733
   C       -1.05728         1.10008        -1.43759
   O       -1.35470         2.28077        -1.42638
   C       -1.93759        -0.06679        -1.27063
   C       -3.31142         0.00524        -1.07987
   C       -4.04417         1.17570        -1.01274
   C       -5.42558         1.19794        -0.84783
   C       -6.25112         2.33125        -0.79065
   C       -7.58716         2.04287        -0.64844
   C       -7.85849         0.67129        -0.58495
   S       -6.38632        -0.25541        -0.70212
   C       -9.10396         0.04140        -0.46978
   C      -10.37152         0.62901        -0.42999
   C      -11.39899        -0.28575        -0.35453
   C      -10.97365        -1.61578        -0.32412
   S       -9.22957        -1.69349        -0.39010
   C      -11.77563        -2.76214        -0.27705
   C      -11.28778        -4.04006        -0.21834
   C      -12.06501        -5.20314        -0.23044
   C      -11.59471        -6.51618        -0.15069
   C      -12.58333        -7.47129        -0.22595
   C      -13.86690        -6.93874        -0.37410
   S      -13.80392        -5.19434        -0.39513
   C      -15.07137        -7.63205        -0.52978
   C      -15.25239        -9.02191        -0.55945
   C      -16.55114        -9.39984        -0.78197
   C      -17.44260        -8.32287        -0.93670
   S      -16.58843        -6.80742        -0.76872
   C      -18.79488        -8.42547        -1.21921
   C      -19.65279        -7.33389        -1.37620
   C      -21.00118        -7.42578        -1.73428
   O      -21.79745        -6.31151        -1.86018
   C      -21.19953        -5.11103        -1.63416
   C      -19.82257        -5.01169        -1.28563
   C      -19.41260        -3.73214        -1.10498
   S      -20.70911        -2.62491        -1.35880
   C      -21.81060        -3.90081        -1.71154
   O      -19.04094        -6.11619        -1.15443
   C      -21.66130        -8.64268        -2.02222
   C      -22.96547        -8.71780        -2.40984
   C      -23.59559        -9.94602        -2.71957
   S      -25.27392       -10.02193        -3.24893
   C      -25.25719       -11.74767        -3.42363
   C      -24.03426       -12.22136        -3.09046
   C      -23.10859       -11.22909        -2.69958
   O      -21.91604       -11.81553        -2.38872
   C      -22.11674       -13.20498        -2.59050
   O      -23.43821       -13.44720        -3.03190
   H        1.48715         2.31296        -1.87322
   H        1.39173        -2.69136        -1.70320
   H        4.24135         1.99135        -2.30295
   H       -3.85992        -0.92362        -0.98211
   H       -3.53449         2.12418        -1.10114
   H       -5.84844         3.32600        -0.85941
   H       -8.36122         2.78682        -0.59000
   H      -10.51519         1.69366        -0.46548
   H      -12.44105        -0.02038        -0.32219
   H      -12.84751        -2.60873        -0.29677
   H      -10.21559        -4.18390        -0.16803
   H      -10.54767        -6.73762        -0.04402
   H      -12.39945        -8.52942        -0.18517
   H      -14.44037        -9.71327        -0.42502
   H      -16.88424       -10.42062        -0.84407
   H      -19.19469        -9.41889        -1.33033
   H      -18.43545        -3.38640        -0.84104
   H      -22.83159        -3.69196        -1.95274
   H      -21.09777        -9.55678        -1.94431
   H      -23.56152        -7.82293        -2.50190
   H      -26.13072       -12.26921        -3.75159
   H      -21.94370       -13.73786        -1.64260
   H      -21.40500       -13.56807        -3.34781
*
