# ORCA input file
# SCF done       -185.373784804183          0.000882716002
! CAM-B3LYP def2-SVP def2/J RIJCOSX Grid4 TightSCF
%maxcore 5000
%tddft
    Mode sTDDFT
    Ethresh 5.0
    maxcore 5000
end

%pal
  nprocs 6
  end
* xyz 0 1
   C       -2.93737         4.26055        -5.70904
   C       -2.59997         2.94075        -5.55408
   C       -1.52372         2.31625        -6.21994
   N       -0.66630         1.74546        -6.72691
   C       -3.26523         2.00370        -4.73608
   N       -3.74483         1.17374        -4.10267
   C       -2.25361         5.20557        -6.58407
   C       -2.93238         6.44875        -6.53168
   C       -2.52940         7.54766        -7.25118
   C       -1.39689         7.41752        -8.05984
   C       -0.72107         6.17420        -8.10407
   C       -1.13148         5.06181        -7.37882
   S        0.65351         6.24449        -9.16118
   C        0.31729         7.90081        -9.52845
   C       -0.77101         8.38702        -8.89274
   C       -4.07215         6.34282        -5.60804
   O       -4.87245         7.22087        -5.35201
   C       -4.03510         4.96958        -5.06914
   C       -4.85440         4.45894        -4.10388
   C       -5.92345         5.04943        -3.39407
   C       -6.60036         4.36061        -2.40351
   C       -7.62179         5.10154        -1.78780
   C       -7.72363         6.40578        -2.34838
   S       -6.55472         6.67252        -3.60698
   C       -8.65247         7.32140        -1.89971
   C       -9.50164         6.94322        -0.86355
   C       -9.39467         5.63733        -0.30354
   C       -8.47884         4.71714        -0.74767
   S      -10.55007         5.40763         0.98458
   C      -11.15546         7.04163         0.77137
   C      -10.51143         7.70698        -0.23075
   C      -12.19473         7.53909         1.61075
   C      -12.82278         6.90375         2.64168
   C      -13.79897         7.70201         3.28842
   C      -13.90067         8.99232         2.70297
   S      -12.78973         9.17445         1.37429
   C      -14.77466         9.94972         3.16517
   C      -15.58027         9.62365         4.25540
   C      -15.47940         8.33405         4.84223
   C      -14.60864         7.37476         4.37612
   S      -16.57260         8.16707         6.18962
   C      -17.14772         9.81066         5.96431
   C      -16.53668        10.43307         4.91559
   C      -18.13524        10.35188         6.83887
   C      -18.72978         9.75072         7.90965
   C      -19.66026        10.58102         8.58134
   C      -19.76188        11.86300         7.97307
   S      -18.70518        11.99430         6.59427
   C      -20.59545        12.84539         8.45103
   C      -21.35976        12.55643         9.58409
   C      -21.26443        11.27336        10.18970
   C      -20.42975        10.28967         9.70641
   S      -22.31050        11.15121        11.57083
   C      -22.82844        12.81733        11.37337
   C      -22.24897        13.40439        10.27783
   C      -23.79680        13.34131        12.26936
   C      -24.09084        14.63567        12.55533
   C      -23.42154        15.89053        12.27576
   C      -22.07057        16.08647        12.15679
   C      -21.47327        17.35080        11.97667
   N      -20.93985        18.35330        11.80845
   C      -21.11113        15.06180        12.28577
   N      -20.28508        14.27621        12.42088
   C      -24.41470        16.94977        12.41408
   C      -25.58586        16.40261        12.99975
   C      -25.40286        14.95312        13.19187
   O      -26.16221        14.16639        13.70797
   C      -26.68592        17.17002        13.29898
   C      -26.63367        18.53377        12.99562
   C      -25.46712        19.06567        12.39439
   C      -24.34984        18.29321        12.09980
   S      -25.63282        20.76681        12.09723
   C      -27.22532        20.75443        12.77247
   C      -27.62331        19.53642        13.19962
   H       -3.07188         8.47823        -7.18829
   H       -0.57953         4.13944        -7.44657
   H        0.96750         8.41695       -10.20783
   H       -1.13039         9.39453        -8.99808
   H       -4.66725         3.43717        -3.79531
   H       -6.35444         3.34833        -2.13286
   H       -8.71914         8.30653        -2.33290
   H       -8.40917         3.73255        -0.31359
   H      -10.74901         8.71990        -0.50443
   H      -12.58931         5.89507         2.93410
   H      -14.83637        10.92408         2.70759
   H      -14.54524         6.40115         4.83518
   H      -16.76042        11.44492         4.62662
   H      -18.50368         8.74364         8.21287
   H      -20.65335        13.81404         7.98077
   H      -20.36550         9.32373        10.18101
   H      -22.47899        14.40306         9.94968
   H      -24.43978        12.60999        12.75032
   H      -27.55992        16.73033        13.75377
   H      -23.48520        18.73979        11.63696
   H      -27.77358        21.67566        12.80741
   H      -28.58078        19.33782        13.64605
*
