# ORCA input file
# SCF done       -281.365420071187          0.000643465191
! CAM-B3LYP def2-SVP def2/J RIJCOSX Grid4 TightSCF
%maxcore 5000
%tddft
    Mode sTDDFT
    Ethresh 5.0
    maxcore 5000
end

%pal
  nprocs 6
  end
* xyz 0 1
   C       -3.65757        -0.38349         4.72079
   C       -3.87891        -1.61492         4.15952
   C       -3.36415        -2.82214         4.67802
   N       -2.97687        -3.84052         5.04019
   C       -4.66939        -1.89152         3.02347
   N       -5.30339        -2.22727         2.12616
   C       -2.91447        -0.15267         5.95296
   C       -3.03032         1.21527         6.29780
   C       -2.44990         1.74929         7.42289
   C       -1.71282         0.89336         8.24608
   C       -1.59415        -0.47107         7.88930
   C       -2.18501        -1.01177         6.75355
   S       -0.63315        -1.34078         9.04402
   C       -0.40686         0.09864         9.97626
   C       -1.01717         1.18432         9.45344
   C       -3.83485         1.91757         5.28214
   O       -4.13333         3.09421         5.31946
   C       -4.16225         0.90103         4.25383
   C       -4.73620         1.07486         3.02477
   C       -5.28849         2.21197         2.39672
   C       -5.53915         3.48831         2.83977
   C       -6.12974         4.32229         1.87287
   C       -6.45614         5.69300         2.00404
   C       -6.32106         6.40463         3.25531
   C       -5.90561         7.69351         3.45465
   C       -5.93470         8.08472         4.80588
   C       -6.38776         7.11076         5.64363
   S       -6.77647         5.67014         4.76921
   C       -6.55487         7.16134         7.11921
   C       -6.92933         6.32111         0.85954
   C       -7.12472         5.65638        -0.37857
   C       -6.81395         4.28719        -0.50752
   C       -6.32343         3.65696         0.63210
   S       -5.80558         2.00238         0.72338
   C       -6.96398         3.56075        -1.75147
   C       -7.37370         2.26824        -1.92541
   C       -7.34694         1.84798        -3.26965
   C       -6.90432         2.80457        -4.12957
   S       -6.52142         4.26820        -3.28379
   C       -6.73427         2.72181        -5.60347
   C       -7.68329         6.51724        -1.35223
   C       -7.89280         7.79002        -0.90742
   S       -7.41518         7.99408         0.76289
   C       -8.40612         8.89458        -1.64487
   C       -8.54773        10.18221        -1.21991
   C       -9.05735        11.05759        -2.20906
   C       -9.27352        12.44649        -2.11046
   C       -8.94572        13.20985        -0.92406
   C       -9.63677        14.25703        -0.38137
   C       -9.01243        14.81380         0.75207
   C       -7.83673        14.21100         1.07594
   S       -7.48189        12.91757        -0.02141
   C       -6.90977        14.52315         2.19477
   C       -9.79984        13.06810        -3.23848
   C      -10.10007        12.38389        -4.44218
   C       -9.85988        10.99857        -4.54918
   C       -9.34962        10.37425        -3.41555
   S       -8.93167         8.68481        -3.30152
   C      -10.09280        10.25273        -5.76912
   C      -10.57423         8.97991        -5.89702
   C      -10.62551         8.52974        -7.23110
   C      -10.17323         9.44374        -8.13116
   S       -9.68142        10.90301        -7.33517
   C      -10.07163         9.32166        -9.60877
   C      -10.62013        13.25731        -5.42726
   C      -10.67917        14.56188        -5.02952
   S      -10.11815        14.77454        -3.38752
   C      -11.11910        15.68218        -5.79645
   C      -11.71785        15.66648        -7.02447
   C      -12.00416        16.95452        -7.53354
   C      -12.65080        17.28151        -8.74462
   C      -12.97042        16.26907        -9.72795
   C      -12.20875        15.19921       -10.10958
   C      -12.79518        14.43473       -11.13699
   C      -14.00373        14.90892       -11.54456
   S      -14.44255        16.33305       -10.65843
   C      -14.90008        14.37767       -12.60357
   C      -12.91231        18.62887        -8.95445
   C      -12.50114        19.65813        -8.06847
   C      -11.82924        19.33282        -6.86955
   C      -11.61025        17.97842        -6.63734
   S      -10.87818        17.30839        -5.20451
   C      -11.39837        20.32877        -5.91328
   C      -10.25628        20.32991        -5.16023
   C      -10.16396        21.42758        -4.28369
   C      -11.23554        22.26451        -4.34472
   S      -12.38646        21.71050        -5.51540
   C      -11.48611        23.50830        -3.57169
   C      -12.80450        20.93720        -8.58072
   C      -13.41829        20.91966        -9.80730
   S      -13.70572        19.27954       -10.35736
   C      -13.87610        22.06003       -10.51556
   C      -14.29932        22.15171       -11.80298
   C      -14.20266        21.23206       -12.91863
   C      -13.14318        20.40498       -13.18417
   C      -13.07610        19.54889       -14.29962
   N      -12.99415        18.81393       -15.17798
   C      -11.96435        20.40272       -12.40743
   N      -10.96380        20.43579       -11.84586
   C      -15.27869        21.56389       -13.84315
   C      -15.83862        22.80902       -13.45389
   C      -15.18523        23.27531       -12.21520
   O      -15.36472        24.31519       -11.62367
   C      -16.84451        23.41519       -14.16736
   C      -17.32725        22.75912       -15.30394
   C      -16.77079        21.51100       -15.67336
   C      -15.74506        20.90096       -14.96073
   S      -17.53110        20.88236       -17.10121
   C      -18.56219        22.26886       -17.19289
   C      -18.35421        23.16399       -16.20342
   H       -2.56129         2.79663         7.65742
   H       -2.06051        -2.05695         6.52589
   H        0.17988         0.04100        10.87242
   H       -0.98528         2.16409         9.89475
   H       -4.76720         0.19643         2.39041
   H       -5.27662         3.80577         3.83112
   H       -5.54918         8.32829         2.66373
   H       -5.62821         9.05800         5.14622
   H       -6.24827         8.13404         7.49644
   H       -5.95116         6.39035         7.59727
   H       -7.59471         6.98791         7.39594
   H       -7.71991         1.64429        -1.12156
   H       -7.64495         0.86414        -3.58554
   H       -7.04479         1.74186        -5.95778
   H       -5.69213         2.88130        -5.88018
   H       -7.33103         3.48412        -6.10393
   H       -7.93433         6.21617        -2.35274
   H       -8.29115        10.48296        -0.22061
   H      -10.58431        14.59757        -0.75759
   H       -9.42444        15.63767         1.30732
   H       -7.27494        15.38370         2.75006
   H       -5.91161        14.74410         1.81793
   H       -6.82823        13.67496         2.87453
   H      -10.91837         8.39336        -5.06471
   H      -10.98746         7.55656        -7.51188
   H      -10.46340         8.35951        -9.92916
   H       -9.03383         9.40300        -9.93143
   H      -10.63517        10.11350       -10.10114
   H      -10.93586        12.93457        -6.40103
   H      -11.98279        14.75924        -7.53344
   H      -11.23458        14.99525        -9.70244
   H      -12.32994        13.56433       -11.56495
   H      -14.53080        13.41811       -12.95741
   H      -14.94243        15.06746       -13.44686
   H      -15.91350        14.25111       -12.22505
   H       -9.48390        19.58905        -5.25849
   H       -9.32768        21.58951        -3.62716
   H      -10.66141        23.69167        -2.88723
   H      -12.40888        23.42625        -2.99770
   H      -11.58572        24.36368        -4.23964
   H      -12.54522        21.85705        -8.08928
   H      -13.99071        22.96137        -9.92121
   H      -17.24691        24.36727       -13.85782
   H      -15.35063        19.94795       -15.27339
   H      -19.27150        22.32699       -17.99544
   H      -18.90063        24.08382       -16.09881
*
