# ORCA input file
# SCF done       -243.113463092186          0.000496364373
! CAM-B3LYP def2-SVP def2/J RIJCOSX Grid4 TightSCF
%maxcore 5000
%tddft
    Mode sTDDFT
    Ethresh 5.0
    maxcore 5000
end

%pal
  nprocs 6
  end
* xyz 0 1
   C      -10.90372        12.90682         1.37769
   C      -10.38389        14.15471         1.60093
   C      -11.01685        15.14452         2.38314
   N      -11.47840        15.99257         3.00395
   C       -9.15054        14.64084         1.11614
   N       -8.16393        15.12266         0.78008
   C      -12.16032        12.40650         1.92450
   C      -12.32076        11.05252         1.53429
   C      -13.40973        10.29716         1.89748
   C      -14.39313        10.90703         2.68171
   C      -14.22840        12.26024         3.06444
   C      -13.12496        13.02294         2.69892
   S      -15.56494        12.80778         4.02556
   C      -16.31661        11.25453         3.90994
   C      -15.60638        10.36107         3.18702
   C      -11.17164        10.64668         0.71377
   O      -10.98188         9.54418         0.23245
   C      -10.31201        11.83594         0.59133
   C       -9.18653        11.93048        -0.17849
   C       -8.56434        10.96666        -0.99260
   N       -7.51280        11.32637        -1.70168
   C       -7.05368        10.32606        -2.42162
   C       -7.74240         9.09190        -2.29525
   S       -9.04584         9.25990        -1.19786
   N       -7.28517         8.08994        -3.03942
   C       -6.26345         8.46489        -3.76008
   S       -5.76165        10.16910        -3.54580
   C       -5.60948         7.61983        -4.67288
   S       -4.30796         8.16753        -5.68794
   C       -4.17351         6.62909        -6.50212
   C       -5.09507         5.74397        -5.97522
   C       -5.91047         6.28401        -4.94437
   C       -6.83691         5.34241        -4.44441
   C       -6.72054         4.13847        -5.07428
   C       -7.51180         2.93412        -4.80819
   O       -8.38704         2.85934        -3.98355
   O       -7.12592         1.93218        -5.61175
   C       -7.79417         0.68603        -5.48069
   S       -5.48218         4.08939        -6.31161
   C       -3.25586         6.43762        -7.56410
   C       -2.34565         7.33939        -8.04551
   C       -1.61644         6.86909        -9.15971
   C       -0.61685         7.54498        -9.89320
   C       -0.09685         8.83336        -9.48805
   C        0.30643         9.87042       -10.28100
   C        0.82585        10.95440        -9.54182
   C        0.84121        10.76359        -8.19033
   S        0.18756         9.20839        -7.80730
   C        1.31721        11.67968        -7.12399
  Cl        1.39155        12.39255       -10.29960
   C       -0.13885         6.89574       -11.02783
   C       -0.56934         5.60380       -11.41992
   C       -1.50874         4.89582       -10.64212
   C       -2.03053         5.56747        -9.54427
   S       -3.24833         4.93870        -8.46825
   C       -1.89652         3.54688       -10.99933
   C       -1.10249         2.54930       -11.49043
   C       -1.82399         1.37151       -11.77880
   C       -3.15935         1.44595       -11.51006
   S       -3.55041         3.01082       -10.87939
   C       -4.20659         0.40974       -11.69298
  Cl       -1.06302        -0.03092       -12.42896
   C        0.03144         5.19240       -12.63149
   C        0.92155         6.09477       -13.13860
   S        1.05203         7.52057       -12.13751
   C        1.66175         5.95319       -14.35103
   C        1.76838         4.81441       -15.09498
   C        2.52725         4.97405       -16.27855
   C        2.79939         4.01121       -17.27049
   C        2.26375         2.66628       -17.21264
   C        2.86832         1.50240       -17.59423
   C        2.04065         0.37135       -17.42388
   C        0.79947         0.64563       -16.92852
   S        0.63971         2.34673       -16.65684
   C       -0.31007        -0.28733       -16.60931
  Cl        2.57210        -1.21978       -17.81256
   C        3.60919         4.42699       -18.32568
   C        4.11986         5.74159       -18.44182
   C        3.81764         6.70970       -17.46761
   C        3.04145         6.28893       -16.39387
   S        2.53106         7.29120       -15.06322
   C        4.28000         8.07858       -17.59477
   C        4.27798         8.86752       -18.70804
   C        4.80510        10.15471       -18.46266
   C        5.21613        10.36141       -17.17855
   S        4.94207         8.93794       -16.23159
   C        5.81837        11.57733       -16.57605
  Cl        4.91149        11.35286       -19.69683
   C        4.92720         5.89132       -19.60808
   C        4.99475         4.76742       -20.34895
   S        4.09871         3.44773       -19.68252
   H      -13.49842         9.26869         1.58367
   H      -13.04983        14.04955         3.01563
   H      -17.25956        11.10402         4.39866
   H      -15.91685         9.34759         3.00827
   H       -8.66928        12.88140        -0.22061
   H       -7.54538         5.54780        -3.66394
   H       -8.16596         0.39833        -6.46375
   H       -8.62061         0.78151        -4.77388
   H       -7.07958        -0.05583        -5.12227
   H       -2.23326         8.31785        -7.61594
   H        0.20733         9.88969       -11.35004
   H        1.64470        12.61709        -7.56634
   H        2.15053        11.23556        -6.57995
   H        0.52108        11.88278        -6.40871
   H       -0.03683         2.62575       -11.60148
   H       -3.75164        -0.51889       -12.02877
   H       -4.93900         0.73100       -12.43321
   H       -4.73326         0.23059       -10.75668
   H       -0.22444         4.28116       -13.13692
   H        1.33121         3.88338       -14.79089
   H        3.87969         1.43487       -17.94861
   H       -0.04062        -1.29518       -16.91474
   H       -1.22322         0.00956       -17.12360
   H       -0.51399        -0.28644       -15.53829
   H        3.87880         8.56655       -19.65898
   H        6.82192        11.36649       -16.20748
   H        5.21898        11.92423       -15.73520
   H        5.87503        12.36691       -17.32116
   H        5.44400         6.79960       -19.85621
   H        5.53232         4.61101       -21.26361
*
