# ORCA input file
# SCF done       -243.782313246602          0.000920831526
! CAM-B3LYP def2-SVP def2/J RIJCOSX Grid4 TightSCF
%maxcore 5000
%tddft
    Mode sTDDFT
    Ethresh 5.0
    maxcore 5000
end

%pal
  nprocs 6
  end
* xyz 0 1
   C       -2.10415         2.07639         1.55377
   C       -1.08386         2.50186         0.73839
   C        0.26997         2.15121         0.91631
   N        1.38843         1.90478         1.00114
   C       -1.22778         3.34018        -0.38496
   N       -1.26273         4.01297        -1.31640
   C       -1.94948         1.20465         2.71513
   C       -3.22672         0.98458         3.29189
   C       -3.41393         0.20434         4.40646
   C       -2.28665        -0.39088         4.98201
   C       -1.01667        -0.16944         4.39896
   C       -0.82749         0.62179         3.27076
   S        0.22951        -1.00332         5.27250
   C       -0.93550        -1.62658         6.38844
   C       -2.20119        -1.23404         6.12551
   C       -4.23616         1.70991         2.50635
   O       -5.43926         1.73822         2.71614
   C       -3.51189         2.38722         1.43126
   C       -4.09014         3.18748         0.47324
   C       -5.43014         3.51389         0.26982
   S       -6.81751         2.97823         1.19319
   C       -7.93074         3.84061         0.17313
   C       -7.25433         4.52229        -0.82929
   C       -5.85304         4.34793        -0.78705
   C       -5.19681         5.04158        -1.82635
   C       -6.07980         5.71437        -2.62336
   C       -5.81217         6.54053        -3.80345
   O       -6.67402         7.07989        -4.45501
   O       -4.50343         6.62485        -4.06601
   C       -4.14790         7.40557        -5.19815
   S       -7.74699         5.53556        -2.14536
   C       -9.33112         3.78157         0.38034
   C      -10.30083         4.41716        -0.34898
   C      -11.61465         4.11825         0.07047
   C      -12.82753         4.56166        -0.50000
   C      -12.86930         5.40290        -1.67777
   C      -13.74124         6.41921        -1.95066
   C      -13.51593         7.00788        -3.21301
   C      -12.49201         6.45116        -3.92397
   S      -11.77663         5.16483        -3.01715
   C      -11.97737         6.81703        -5.26680
  Cl      -14.46330         8.32288        -3.79302
   C      -13.99403         4.12384         0.11786
   C      -14.00539         3.26305         1.24494
   C      -12.79416         2.79809         1.79654
   C      -11.62536         3.25382         1.19540
   S      -10.00855         2.80313         1.66281
   C      -12.74610         1.86018         2.89977
   C      -11.84895         1.82139         3.92891
   C      -12.05537         0.72402         4.79222
   C      -13.08958        -0.09107         4.43511
   S      -13.84524         0.50974         2.99927
   C      -13.57981        -1.32402         5.10091
  Cl      -11.07155         0.45040         6.17783
   C      -15.32348         2.96910         1.66637
   C      -16.29025         3.52736         0.88229
   S      -15.61398         4.48896        -0.41307
   C      -17.70098         3.38014         1.02013
   C      -18.67513         3.80561         0.16202
   C      -19.97877         3.45205         0.57956
   C      -19.96990         2.74814         1.79682
   S      -18.35766         2.52581         2.40369
   C      -21.11491         2.26033         2.41515
   O      -20.89668         1.59236         3.57375
   C      -21.81385         0.63757         4.05978
   C      -22.33739         2.53513         1.77319
   C      -22.34260         3.21530         0.51125
   C      -21.19374         3.67906        -0.10535
   O      -21.05631         4.33049        -1.28590
   C      -22.13358         4.43327        -2.18667
   S      -23.98293         3.37574        -0.08987
   C      -24.63554         2.56787         1.31719
   C      -23.65110         2.23438         2.20451
   C      -26.03001         2.34793         1.48746
   C      -26.96725         2.17796         0.52079
   C      -26.83561         1.92364        -0.89892
   C      -25.81696         1.22383        -1.49336
   C      -25.74095         0.96574        -2.87552
   N      -25.61737         0.75111        -3.99654
   C      -24.78644         0.59899        -0.76095
   N      -23.97693         0.01966        -0.18798
   C      -28.09984         2.28749        -1.52253
   C      -29.05781         2.52035        -0.50038
   C      -28.41242         2.37921         0.81873
   O      -28.92271         2.45598         1.91286
   C      -30.36765         2.82752        -0.78006
   C      -30.74579         2.91939        -2.12329
   C      -29.77819         2.69925        -3.13335
   C      -28.45472         2.37938        -2.85381
   S      -30.46991         2.87253        -4.71494
   C      -32.01757         3.22392        -4.02656
   C      -32.02357         3.21715        -2.67590
   H       -4.39937         0.05807         4.82084
   H        0.16146         0.75886         2.86658
   H       -0.59501        -2.25913         7.18506
   H       -3.05538        -1.52224         6.71115
   H       -3.42616         3.64175        -0.25043
   H       -4.13543         5.05409        -1.99607
   H       -3.06202         7.43923        -5.21162
   H       -4.56596         8.41050        -5.11242
   H       -4.52901         6.94306        -6.11099
   H      -10.06719         5.08300        -1.15731
   H      -14.49263         6.77083        -1.26871
   H      -12.49202         7.70382        -5.62806
   H      -12.13755         6.00377        -5.97457
   H      -10.90744         7.01696        -5.22359
   H      -11.08820         2.56047         4.09697
   H      -13.01607        -1.49524         6.01446
   H      -13.46115        -2.18689         4.44584
   H      -14.63720        -1.23287         5.34613
   H      -15.56531         2.36332         2.51988
   H      -18.47445         4.34343        -0.74652
   H      -21.22454        -0.04467         4.67332
   H      -22.28512         0.07965         3.24781
   H      -22.57504         1.10529         4.69170
   H      -21.71337         4.89047        -3.08167
   H      -22.93066         5.07351        -1.79884
   H      -22.54128         3.45192        -2.44293
   H      -23.89463         1.75556         3.13329
   H      -26.39898         2.37700         2.50792
   H      -31.08016         2.98887         0.01394
   H      -27.74834         2.22218        -3.65251
   H      -32.83984         3.41731        -4.68767
   H      -32.89398         3.41376        -2.07653
*
