# ORCA input file
# SCF done       -187.510953692962          0.000665131299
! CAM-B3LYP def2-SVP def2/J RIJCOSX Grid4 TightSCF
%maxcore 5000
%tddft
    Mode sTDDFT
    Ethresh 5.0
    maxcore 5000
end

%pal
  nprocs 6
  end
* xyz 0 1
   C       -3.13316         2.97263         0.33076
   C       -2.52915         1.77030         0.05078
   C       -2.29178         0.76862         1.00663
   N       -2.02885        -0.06205         1.75622
   C       -2.16453         1.39188        -1.25660
   N       -1.92224         1.02817        -2.31863
   C       -3.87344         3.28779         1.54867
   C       -4.75051         4.37584         1.26675
   C       -5.59790         4.87427         2.21209
   C       -5.59516         4.30825         3.50831
   C       -4.71172         3.22938         3.79863
   C       -3.85338         2.72343         2.79397
   C       -4.71278         2.68222         5.09729
   C       -5.54616         3.17429         6.06481
   C       -6.41618         4.23608         5.77799
   C       -6.44072         4.78984         4.52653
   C       -4.53744         4.82614        -0.12507
   O       -5.13254         5.69445        -0.72341
   C       -3.37680         4.03550        -0.60854
   C       -2.63635         4.51249        -1.66009
   C       -1.28907         4.31529        -1.97006
   C       -0.61886         4.98468        -3.01838
   C        0.78490         4.78065        -3.00961
   N        1.59076         5.33574        -3.92268
   C        1.01677         6.08454        -4.83612
   C       -0.39642         6.30849        -4.84037
   N       -1.19036         5.76759        -3.94582
   C       -1.03483         7.17310        -5.87324
   C        1.90392         6.69209        -5.86853
   C        1.20924         3.94613        -1.95778
   S       -0.13411         3.41780        -1.01197
   C        2.51136         3.57257        -1.65077
   C        2.86871         2.62670        -0.67007
   C        4.26993         2.46318        -0.55229
   N        4.80130         1.60520         0.32857
   C        3.95642         0.91236         1.05761
   C        2.53704         1.07016         0.93188
   N        2.01206         1.92746         0.08568
   C        1.60084         0.26344         1.76107
   C        4.53984        -0.05566         2.02784
   C        4.98773         3.30693        -1.42200
   S        3.91636         4.24464        -2.42028
   C        6.36588         3.48120        -1.45227
   C        7.04068         4.43693        -2.23730
   C        8.43730         4.48215        -1.99498
   N        9.18931         5.42509        -2.58874
   C        8.59310         6.22123        -3.44653
   C        7.19658         6.12088        -3.73234
   N        6.43655         5.25253        -3.10511
   C        6.53473         7.00588        -4.73163
   C        9.44548         7.24580        -4.11356
   C        8.86066         3.52261        -1.05210
   S        7.47769         2.63083        -0.44977
   C       10.12029         3.27155        -0.49923
   C       11.35788         3.71420        -0.89064
   C       11.84802         4.29591        -2.11045
   C       11.35823         4.06711        -3.37323
   C       11.87190         4.66199        -4.53869
   N       12.22239         5.15082        -5.51801
   C       10.31138         3.16588        -3.64079
   N        9.48184         2.41414        -3.89816
   C       13.09552         4.98634        -1.79589
   C       13.47664         4.64232        -0.46595
   C       12.44753         3.76128         0.11951
   O       12.45423         3.22866         1.20772
   C       14.61973         5.12453         0.10082
   C       15.44159         6.00157        -0.64417
   C       15.06035         6.35919        -1.96904
   C       13.87538         5.83202        -2.53545
   C       15.88356         7.24231        -2.69590
   C       17.02907         7.74830        -2.14382
   C       17.40405         7.39464        -0.83965
   C       16.62730         6.53883        -0.10649
   H       -6.26179         5.69332         1.97841
   H       -3.18864         1.90933         3.03888
   H       -4.04252         1.86286         5.31277
   H       -5.53938         2.74752         7.05675
   H       -7.06662         4.61340         6.55298
   H       -7.10879         5.60803         4.29996
   H       -3.12248         5.26801        -2.27069
   H       -0.61497         8.17740        -5.84320
   H       -2.10362         7.22194        -5.68701
   H       -0.86109         6.76592        -6.86824
   H        2.92584         6.36930        -5.69152
   H        1.85366         7.77917        -5.82362
   H        1.59497         6.38249        -6.86564
   H        1.76145        -0.79938         1.58744
   H        0.57448         0.51174         1.50773
   H        1.76577         0.45608         2.82013
   H        5.62343        -0.00951         1.96961
   H        4.20834        -1.06727         1.79835
   H        4.21942         0.17901         3.04162
   H        6.99484         6.88021        -5.71042
   H        6.63453         8.05170        -4.44441
   H        5.48125         6.74713        -4.78748
   H       10.43419         7.24418        -3.66326
   H        9.00427         8.23653        -4.02333
   H        9.54445         7.01371        -5.17375
   H       10.11889         2.71286         0.43250
   H       14.89443         4.84576         1.10739
   H       13.60741         6.12148        -3.53991
   H       15.59242         7.51030        -3.70115
   H       17.65272         8.42423        -2.70978
   H       18.31056         7.80332        -0.41855
   H       16.91067         6.26262         0.89878
*
