# ORCA input file
# SCF done       -186.719857709571          0.000739993556
! CAM-B3LYP def2-SVP def2/J RIJCOSX Grid4 TightSCF
%maxcore 5000
%tddft
    Mode sTDDFT
    Ethresh 5.0
    maxcore 5000
end

%pal
  nprocs 6
  end
* xyz 0 1
   C       -9.14175       -14.56912         1.08175
   O       -8.49620       -13.95820         0.27752
   N      -10.51341       -14.42358         1.21477
   C      -11.32539       -13.79737         0.28671
   N      -12.55446       -13.76747         0.66524
   C      -12.59237       -14.36589         1.89712
   C      -11.35337       -14.78249         2.25711
   N       -8.58057       -15.51207         1.95672
   C       -9.06846       -16.78855         2.17786
   C       -8.10231       -17.45534         2.86578
   N       -7.04268       -16.64187         3.09487
   C       -7.32012       -15.48981         2.54082
   C       -6.45920       -14.35485         2.62855
   C       -6.73068       -13.01306         2.46115
   C       -5.59983       -12.22975         2.69351
   C       -4.46747       -12.99024         3.04410
   S       -4.80073       -14.66377         3.09443
   C       -3.37954       -12.10805         3.26241
   C       -3.83120       -10.78857         3.04592
   C       -5.23963       -10.82386         2.68258
   C       -6.05132        -9.76380         2.40150
   C       -7.41829        -9.93174         2.09451
   N       -8.53297       -10.06633         1.86128
   C       -5.58460        -8.43244         2.41607
   N       -5.21502        -7.34700         2.42679
   C       -2.84201        -9.83939         3.25313
   C       -1.63492       -10.42124         3.62658
   S       -1.73131       -12.17364         3.71195
   C       -0.43268        -9.74237         3.94478
   C        0.73280       -10.45090         4.32148
   C        1.96808        -9.80747         4.70094
   N        3.02881       -10.56825         5.00711
   C        2.93015       -11.87422         4.97932
   C        1.69207       -12.51187         4.64245
   N        0.64947       -11.78601         4.32323
   C        1.57970       -13.92384         4.64284
   N        1.51673       -15.06737         4.65123
   C        4.06632       -12.67178         5.27247
   N        4.95084       -13.36581         5.48871
   C        2.07438        -8.39391         4.74457
   C        0.92053        -7.69042         4.32879
   C       -0.30647        -8.33518         3.93366
   N       -1.23819        -7.44338         3.59428
   S       -0.64831        -5.96289         3.74858
   N        0.82163        -6.36254         4.25912
   C        3.22376        -7.68539         5.18545
   C        4.41622        -8.19377         5.68941
   C        5.29767        -7.18735         6.05786
   C        4.78149        -5.89431         5.83114
   S        3.21023        -5.92458         5.16848
   C        5.74680        -4.94653         6.25326
   C        6.86920        -5.63869         6.74506
   C        6.62312        -7.06644         6.64797
   C        7.44579        -8.07527         7.05454
   C        7.08544        -9.43465         6.93164
   N        6.79307       -10.53933         6.84456
   C        8.69716        -7.81967         7.65451
   N        9.70329        -7.60735         8.16213
   C        7.87957        -4.78666         7.19372
   C        7.52920        -3.46188         7.04163
   S        5.93358        -3.25235         6.35362
   C        8.22123        -2.27008         7.41270
   N        7.62065        -1.11896         7.57462
   C        8.56338        -0.23705         7.98843
   C        9.76794        -0.85741         8.11020
   N        9.56769        -2.17646         7.74056
   C       10.58314        -3.11265         7.49193
   O       10.60163        -3.81449         6.52050
   N       11.57638        -3.13454         8.45806
   C       12.81864        -3.71852         8.29018
   N       13.54168        -3.62430         9.34996
   C       12.77308        -2.98187        10.28454
   C       11.56285        -2.66482         9.76195
   H      -10.93406       -13.41084        -0.63212
   H      -13.51480       -14.45163         2.43474
   H      -10.99547       -15.25451         3.14812
   H      -10.01434       -17.10809         1.79209
   H       -8.10348       -18.46717         3.21661
   H       -7.69237       -12.61805         2.19275
   H       -2.95483        -8.77568         3.15146
   H        4.60042        -9.24860         5.77246
   H        8.81001        -5.12273         7.61097
   H        8.31197         0.78652         8.17837
   H       10.73577        -0.48314         8.37230
   H       13.10676        -4.17050         7.36308
   H       13.15164        -2.79524        11.26896
   H       10.70434        -2.19607        10.19565
*
