# ORCA input file
# SCF done       -200.222690663831          0.000462655242
! CAM-B3LYP def2-SVP def2/J RIJCOSX Grid4 TightSCF
%maxcore 5000
%tddft
    Mode sTDDFT
    Ethresh 5.0
    maxcore 5000
end

%pal
  nprocs 6
  end
* xyz 0 2
   C        1.60032        -2.53194        -0.53359
   O        1.26571        -3.25392        -1.44803
   C        2.38659        -1.27569        -0.67087
   C        2.59065        -0.69418         0.58475
   C        3.29935         0.48357         0.71721
   C        3.80591         1.07738        -0.43391
   C        3.60123         0.49571        -1.69027
   C        2.88649        -0.69057        -1.81736
  Cl        4.23941         1.25246        -3.09457
  Cl        4.69390         2.54305        -0.30669
   C        1.94932        -1.53547         1.62540
   O        1.92632        -1.33465         2.81917
   C        1.34281        -2.67758         0.90670
   C        0.69175        -3.63844         1.62679
   C        0.04374        -4.82008         1.22728
   C       -0.16662        -5.38324        -0.02778
   C       -0.85238        -6.58601         0.04636
   C       -1.17657        -6.96120         1.37590
   S       -0.64029        -5.82361         2.51800
   C       -1.85032        -8.19793         1.35295
   C       -1.96070        -8.61624         0.00785
   C       -1.34268        -7.61732        -0.85228
   C       -1.24928        -7.65905        -2.21238
   C       -1.76847        -8.73493        -2.96459
   N       -2.18249        -9.60217        -3.59049
   C       -0.63650        -6.64738        -2.98356
   N       -0.15154        -5.84986        -3.64875
   C       -2.59966        -9.83893        -0.12163
   C       -2.97641       -10.36575         1.11185
   S       -2.53772        -9.32031         2.44982
   C       -3.61942       -11.60793         1.34234
   C       -3.92072       -12.04807         2.65141
   C       -4.52511       -13.31962         2.91337
   N       -4.77480       -13.68403         4.18442
   C       -4.46707       -12.87601         5.15427
   C       -3.87344       -11.62151         4.89611
   N       -3.61551       -11.23837         3.68223
   F       -3.55902       -10.79111         5.88817
   F       -4.73112       -13.27292         6.39817
   C       -4.86752       -14.22456         1.88346
   C       -4.59730       -13.77991         0.56505
   C       -3.98452       -12.49735         0.30071
   N       -3.82073       -12.29523        -1.00534
   S       -4.37148       -13.56455        -1.81996
   N       -4.84711       -14.44408        -0.56149
   C       -5.42232       -15.49347         2.18092
   C       -5.78256       -16.47835         1.26240
   C       -6.26121       -17.62058         1.88110
   C       -6.27302       -17.51354         3.29567
   S       -5.69201       -15.98394         3.84051
   C       -6.74520       -18.72062         3.81344
   C       -7.04011       -19.60668         2.74013
   C       -6.74981       -18.93059         1.49823
   C       -6.91309       -19.43151         0.22882
   C       -7.42124       -20.72571         0.02256
   N       -7.84315       -21.78543        -0.11502
   C       -6.59441       -18.69259        -0.92499
   N       -6.33711       -18.10554        -1.87691
   C       -7.49518       -20.85177         3.16138
   C       -7.53520       -20.91034         4.53412
   S       -7.03729       -19.42759         5.35212
  Cl       -8.04503       -22.26072         5.45506
   C       -9.69272       -21.89635         5.96138
   C       -9.89889       -21.43775         7.25004
   C      -11.20076       -21.15727         7.62276
   C      -12.26483       -21.32629         6.71282
   C      -12.03604       -21.77451         5.41936
   C      -10.73653       -22.06515         5.03543
  Cl      -10.39687       -22.63373         3.44579
   C      -13.54584       -20.97232         7.35972
   O      -14.65067       -21.00589         6.86729
   C      -13.18852       -20.57023         8.75013
   C      -14.05011       -20.17723         9.68779
   C      -11.71309       -20.68206         8.92815
   O      -11.06950       -20.44436         9.92194
   H        3.45713         0.93159         1.68558
   H        2.72736        -1.14150        -2.78431
   H        0.68545        -3.45265         2.69856
   H        0.18179        -4.91079        -0.93010
   H       -2.79699       -10.35706        -1.04184
   H       -5.67731       -16.32868         0.20337
   H       -7.76154       -21.66830         2.51570
   H       -9.08572       -21.30576         7.94714
   H      -12.85744       -21.89822         4.73096
   H      -15.10643       -20.12495         9.47908
   H      -13.70908       -19.90385        10.67324
*
