# ORCA input file
# SCF done       -210.550614571134          0.000830361984
! CAM-B3LYP def2-SVP def2/J RIJCOSX Grid4 TightSCF
%maxcore 5000
%tddft
    Mode sTDDFT
    Ethresh 5.0
    maxcore 5000
end

%pal
  nprocs 6
  end
* xyz 0 1
   C      -10.21764        -0.86432         0.10476
   C      -10.76499        -1.67530         1.06449
   C      -11.46521        -2.86769         0.78446
   N      -12.04547        -3.84365         0.61629
   C      -10.67893        -1.45987         2.45686
   N      -10.63857        -1.37547         3.60108
   C      -10.21696        -1.12390        -1.32923
   C       -9.44068        -0.12866        -1.97136
   C       -9.24473        -0.10361        -3.33089
   C       -9.84007        -1.11211        -4.09514
   C      -10.61865        -2.10069        -3.44575
   C      -10.81932        -2.12383        -2.07134
   S      -11.26995        -3.24606        -4.57807
   C      -10.49625        -2.39602        -5.88943
   C       -9.78703        -1.30911        -5.50191
  Br      -10.69779        -3.02234        -7.64510
   C       -8.93148         0.82990        -0.97066
   O       -8.29949         1.83362        -1.20269
   C       -9.45811         0.35083         0.33940
   C       -9.39033         1.04530         1.50881
   C       -8.53103         2.13849         1.78975
   C       -7.22757         2.42049         1.31305
   C       -6.82083         3.61510         1.94427
   C       -7.89799         3.95364         2.83102
   N       -8.89118         3.06192         2.71842
   O       -7.88049         4.93473         3.68151
   C       -9.04567         5.18287         4.45320
   C       -5.51489         3.88262         1.46877
   N       -5.09493         2.85891         0.65982
   C       -6.09276         1.98962         0.55144
   O       -6.02090         0.87732        -0.13916
   C       -4.80339         0.65580        -0.83318
   C       -4.66447         4.98013         1.64896
   C       -4.94962         6.27949         2.11812
   C       -3.80169         7.14867         2.08205
   N       -3.90072         8.42891         2.43356
   C       -5.09115         8.85921         2.80473
   C       -5.21775        10.29053         3.18110
   O       -4.34659        11.11179         2.98715
   C       -6.50536        10.66352         3.79368
   C       -7.56998         9.85695         3.81276
   C       -7.56608         8.50473         3.22926
   O       -8.58974         7.86743         3.08729
   C       -6.22988         7.99937         2.82756
   N       -6.14509         6.72865         2.48621
   C       -2.65350         6.49401         1.59041
   S       -3.01803         4.86009         1.13880
   C       -1.33822         6.91622         1.36380
   C       -0.62097         8.10001         1.64782
   C        0.66783         7.91363         1.09875
   C        0.66185         6.59516         0.53942
   N       -0.52168         6.02417         0.70686
   O        1.68325         6.02480        -0.05650
   C        1.47705         4.69595        -0.50984
   C        1.40272         9.08973         1.36469
   N        0.61882         9.97135         2.04777
   C       -0.57547         9.40545         2.24708
   O       -1.53905         9.95988         2.91618
   C       -1.31515        11.25520         3.44778
   C        2.71979         9.37027         0.93520
   C        3.44362        10.49931         1.16808
   C        3.18646        11.63056         2.03436
   C        2.54631        11.59184         3.24125
   C        2.31341        12.72687         4.04234
   N        2.06744        13.62485         4.71412
   C        2.14933        10.39774         3.88859
   N        1.95087         9.49045         4.56457
   C        3.92657        12.76346         1.48899
   C        4.79923        12.29209         0.47415
   C        4.59829        10.84102         0.28927
   O        5.19515        10.09503        -0.45098
   C        5.65885        13.12374        -0.20274
   C        5.64898        14.48253         0.12802
   C        4.76665        14.94403         1.13478
   C        3.90378        14.10287         1.82697
   S        4.91276        16.65795         1.37513
   C        6.14132        16.73126         0.13909
   C        6.42857        15.53498        -0.42604
  Br        6.92520        18.38002        -0.28884
   H       -8.64999         0.67064        -3.78964
   H      -11.42703        -2.89328        -1.62543
   H       -9.24979        -0.67070        -6.17922
   H      -10.05958         0.79087         2.32185
   H       -8.74587         5.23464         5.50036
   H       -9.78260         4.39629         4.29740
   H       -9.43789         6.15220         4.13542
   H       -4.89410        -0.32152        -1.30235
   H       -3.96117         0.67686        -0.13910
   H       -4.65498         1.43169        -1.58614
   H       -6.55081        11.66892         4.19007
   H       -8.51646        10.17906         4.22555
   H        0.64877         4.66178        -1.21984
   H        1.24145         4.04173         0.33157
   H        2.40633         4.39083        -0.98534
   H       -0.73540        11.86268         2.75162
   H       -0.77381        11.17897         4.39399
   H       -2.30404        11.68077         3.60614
   H        3.15941         8.64464         0.25986
   H        6.31748        12.73883        -0.96538
   H        3.24564        14.49715         2.58363
   H        7.15883        15.39790        -1.20242
*
