# ORCA input file
# SCF done       -225.822041783619          0.000424228163
! CAM-B3LYP def2-SVP def2/J RIJCOSX Grid4 TightSCF
%maxcore 5000
%tddft
    Mode sTDDFT
    Ethresh 5.0
    maxcore 5000
end

%pal
  nprocs 6
  end
* xyz 0 1
   C       -7.37633         1.73060        -4.91567
   C       -8.02658         1.87972        -6.10869
   F       -8.28199         3.10348        -6.58775
   C       -8.43625         0.75203        -6.84846
   F       -9.07175         0.92799        -8.01418
   C       -8.19021        -0.50989        -6.38437
   C       -7.52317        -0.69596        -5.15811
   C       -7.10750         0.44315        -4.40944
   C       -6.43587         0.28159        -3.17549
   C       -6.18944        -0.98032        -2.70282
   C       -6.61322        -2.11085        -3.45620
   C       -7.26015        -1.98809        -4.65196
   C       -6.24626        -3.33663        -2.73009
   O       -6.44943        -4.48183        -3.09682
   C       -5.60288        -2.90250        -1.48584
   C       -5.53236        -1.45212        -1.48507
   C       -4.94403        -0.64720        -0.54537
   C       -4.27307        -1.08777         0.61540
   N       -3.70610        -1.36508         1.57464
   C       -4.91396         0.76195        -0.62190
   N       -4.85681         1.90826        -0.62445
   C       -5.18919        -3.73171        -0.47396
   C       -5.23308        -5.13016        -0.37014
   C       -4.81129        -5.79353         0.79035
   C       -4.94887        -7.16396         0.69624
   C       -5.46992        -7.56400        -0.55897
   S       -5.80047        -6.25939        -1.60084
   C       -5.58617        -8.97532        -0.55395
   C       -5.14687        -9.46592         0.69184
   C       -4.72905        -8.34567         1.51727
   C       -4.24672        -8.39638         2.79152
   C       -4.08652        -9.61539         3.48481
   N       -3.95662       -10.60278         4.05271
   C       -3.88126        -7.23435         3.50444
   N       -3.58682        -6.29368         4.08943
   C       -5.24592       -10.84939         0.79475
   C       -5.75468       -11.42079        -0.36090
   S       -6.10564       -10.21862        -1.59468
   C       -6.01468       -12.81144        -0.57672
   C       -6.48102       -13.32830        -1.77986
   F       -6.68368       -12.50462        -2.82374
   C       -6.76947       -14.68047        -1.98617
   F       -7.21817       -15.02022        -3.20819
   C       -6.63358       -15.65883        -1.00826
   C       -6.13950       -15.17630         0.23780
   C       -5.83228       -13.78538         0.44715
   N       -5.38693       -13.56485         1.68200
   S       -5.35038       -14.94556         2.49548
   N       -5.90075       -15.89887         1.32994
   C       -6.97497       -17.03338        -1.21218
   C       -6.95295       -18.03729        -0.25675
   C       -7.37690       -19.25736        -0.77228
   C       -7.71569       -19.18682        -2.13801
   S       -7.51940       -17.62133        -2.77635
   C       -8.14147       -20.46957        -2.56342
   C       -8.08212       -21.34719        -1.46036
   C       -7.58775       -20.61737        -0.30502
   C       -7.35273       -21.11989         0.94084
   C       -7.59694       -22.47723         1.23979
   N       -7.80890       -23.58158         1.46413
   C       -6.86211       -20.32161         1.99587
   N       -6.47178       -19.67197         2.85592
   C       -8.47262       -22.64055        -1.77587
   C       -8.82182       -22.77242        -3.11377
   S       -8.68946       -21.24176        -3.97525
   C       -9.29797       -23.90421        -3.80675
   C       -9.26309       -25.21893        -3.44799
   C      -10.20692       -26.15639        -4.12283
   O      -10.85358       -25.93260        -5.11916
   C      -10.21711       -27.36868        -3.28213
   C      -11.00794       -28.47673        -3.38351
   C      -10.86834       -29.50858        -2.42857
   C       -9.91409       -29.36661        -1.37920
   C       -9.78958       -30.39434        -0.42291
   C      -10.57193       -31.51182        -0.50698
   C      -11.51321       -31.65233        -1.54683
   C      -11.65942       -30.67243        -2.48823
   F      -12.26720       -32.75797        -1.60381
   F      -10.45179       -32.48797         0.40148
   C       -9.10254       -28.21113        -1.30518
   C       -9.24598       -27.23079        -2.24983
   C       -8.54022       -25.96471        -2.44055
   C       -7.29411       -25.68532        -1.94221
   C       -6.53012       -24.56569        -2.32309
   N       -5.87126       -23.67585        -2.62680
   C       -6.59196       -26.53813        -1.06405
   N       -5.97930       -27.19846        -0.35371
   H       -7.06926         2.60447        -4.36255
   H       -8.51038        -1.36277        -6.96214
   H       -6.13717         1.16478        -2.63494
   H       -7.56832        -2.86417        -5.20205
   H       -4.77365        -3.25842         0.40757
   H       -4.43192        -5.26357         1.64625
   H       -4.97577       -11.43776         1.65164
   H       -6.64252       -17.85612         0.75541
   H       -8.55199       -23.44417        -1.06703
   H       -9.83606       -23.70498        -4.72913
   H      -11.73178       -28.56396        -4.17936
   H       -9.07174       -30.30429         0.37730
   H      -12.38471       -30.79459        -3.27736
   H       -8.39631       -28.12382        -0.49503
*
