# ORCA input file
# SCF done       -194.935826310565          0.000991032813
! CAM-B3LYP def2-SVP def2/J RIJCOSX Grid4 TightSCF
%maxcore 5000
%tddft
    Mode sTDDFT
    Ethresh 5.0
    maxcore 5000
end

%pal
  nprocs 6
  end
* xyz 0 1
   C        1.08606        -1.23770        -1.36424
   O       -0.04911        -1.50710        -1.04660
   C        1.54634         0.04920        -1.93346
   C        2.94442         0.03783        -2.07430
   C        3.59075         1.15587        -2.57728
   C        2.82796         2.26066        -2.93792
   C        1.43860         2.25956        -2.79860
   C        0.78744         1.14581        -2.28518
  Br        0.42585         3.77306        -3.30463
  Br        3.70825         3.78586        -3.62697
   C        3.45407        -1.25571        -1.62582
   C        4.76091        -1.65858        -1.69011
   C        5.81550        -0.84802        -2.16345
   N        6.71156        -0.23490        -2.53464
   C        5.24102        -2.93037        -1.30901
   N        5.71113        -3.93909        -1.02759
   C        2.31950        -2.04372        -1.17619
   C        2.37469        -3.24068        -0.53227
   C        1.25734        -4.07199        -0.18352
   C        0.15452        -4.26469        -1.04722
   O        0.26867        -3.79273        -2.30501
   C       -0.81083        -3.96189        -3.19456
   C       -0.93668        -4.98164        -0.57611
   C       -0.94924        -5.54219         0.69416
   C        0.21344        -5.48847         1.49589
   C        1.29076        -4.75203         1.04090
   O        0.20319        -6.21527         2.63872
   C        1.30994        -6.12655         3.50589
   C       -2.16418        -6.18819         1.18078
   C       -2.67542        -5.92584         2.45916
   C       -3.85873        -6.57524         2.95882
   N       -4.28758        -6.29852         4.21743
   C       -3.63673        -5.44437         4.92625
   C       -2.49914        -4.75600         4.40551
   N       -2.05569        -4.98982         3.22165
   F       -1.88016        -3.82787         5.13275
   F       -4.07826        -5.18924         6.15564
   C       -4.57702        -7.50180         2.18963
   C       -4.10747        -7.71602         0.88540
   C       -2.91679        -7.06272         0.38355
   N       -2.66599        -7.40684        -0.88709
   S       -3.80686        -8.41213        -1.38516
   N       -4.68171        -8.47890        -0.05259
   C       -5.75795        -8.19039         2.70203
   C       -5.91045        -9.58434         2.52465
   O       -4.86618       -10.24683         1.97552
   C       -4.96647       -11.64059         1.79950
   C       -7.08161       -10.17808         2.95172
   C       -8.08094        -9.46625         3.63225
   C       -7.89219        -8.08179         3.85084
   C       -6.74565        -7.47367         3.36016
   O       -8.88262        -7.40923         4.48396
   C       -8.73168        -6.02503         4.71523
   C       -9.27225       -10.18077         3.98478
   C      -10.22296        -9.97806         4.93476
   C      -11.53539       -10.66604         4.77566
   O      -11.80311       -11.55730         4.00525
   C      -12.44451        -9.98650         5.72538
   C      -11.71235        -9.05946         6.48982
   C      -10.30416        -9.13893         6.10873
   C       -9.25117        -8.67417         6.84915
   C       -7.90963        -9.00503         6.56984
   N       -6.81240        -9.28531         6.38780
   C       -9.39217        -7.87613         8.00259
   N       -9.46567        -7.20142         8.92819
   C      -12.36180        -8.27655         7.42900
   C      -13.73359        -8.43452         7.59185
   C      -14.45033        -9.36625         6.83868
   C      -13.80323       -10.15298         5.89402
  Br      -16.31373        -9.56510         7.08886
  Br      -14.62711        -7.35242         8.85923
   H        4.66148         1.19665        -2.69445
   H       -0.28498         1.13412        -2.16657
   H        3.33923        -3.59420        -0.18832
   H       -0.48168        -3.52989        -4.13845
   H       -1.69781        -3.42843        -2.84195
   H       -1.04718        -5.02024        -3.34028
   H       -1.82184        -5.08843        -1.17945
   H        2.17397        -4.63838         1.64920
   H        1.06898        -6.76528         4.35412
   H        1.45914        -5.10128         3.85688
   H        2.22541        -6.49109         3.02948
   H       -4.01485       -11.95015         1.37035
   H       -5.77494       -11.89988         1.10932
   H       -5.11671       -12.15481         2.75369
   H       -7.24185       -11.23448         2.80715
   H       -6.59875        -6.41481         3.48181
   H       -9.61775        -5.72346         5.27261
   H       -8.68841        -5.46508         3.77688
   H       -7.83944        -5.81655         5.31219
   H       -9.49896       -11.01841         3.32871
   H      -11.83914        -7.54702         8.02674
   H      -14.34863       -10.87441         5.30553
*
