# ORCA input file
# SCF done       -188.563718337429          0.000965196316
! CAM-B3LYP def2-SVP def2/J RIJCOSX Grid4 TightSCF
%maxcore 5000
%tddft
    Mode sTDDFT
    Ethresh 5.0
    maxcore 5000
end

%pal
  nprocs 6
  end
* xyz 0 1
   C       -0.77159       -11.18375        -2.12549
   O       -1.63624       -10.36959        -1.90928
   C       -0.96435       -12.61201        -2.44205
   C        0.28110       -13.24690        -2.60200
   C        0.32764       -14.60004        -2.89922
   C       -0.86892       -15.29316        -3.03823
   C       -2.10277       -14.65120        -2.88526
   C       -2.15456       -13.29751        -2.58087
  Br       -3.71065       -15.61802        -3.08853
  Br       -0.80711       -17.13686        -3.43928
   C        1.34175       -12.26532        -2.41517
   C        2.67421       -12.46502        -2.63890
   C        3.23164       -13.70624        -3.02128
   N        3.73281       -14.69167        -3.32516
   C        3.66283       -11.45718        -2.56430
   N        4.50931       -10.68335        -2.55315
   C        0.71127       -11.00218        -2.04538
   C        1.34818        -9.93436        -1.50950
   C        0.77037        -8.65254        -1.19639
   C       -0.16189        -8.03711        -1.96289
   C       -0.72165        -6.75274        -1.69223
   C       -1.69329        -6.23029        -2.54268
   C       -2.27204        -4.97043        -2.32215
   N       -2.72799        -3.93250        -2.13608
   C       -2.14323        -6.92387        -3.67787
   N       -2.50322        -7.47930        -4.61656
   C       -0.27978        -6.00107        -0.57030
   C        0.67981        -6.39333         0.31473
   S        1.50365        -7.93924         0.23615
   C        1.11174        -5.55577         1.38670
   C        2.10298        -5.87828         2.31366
   C        2.36996        -4.82682         3.25402
   N        3.24251        -5.00501         4.25477
   C        3.82612        -6.17798         4.32686
   C        4.67974        -6.44309         5.51756
   O        4.69463        -5.69814         6.47174
   C        5.46473        -7.68666         5.46330
   C        5.31545        -8.61153         4.50920
   C        4.34644        -8.49508         3.40476
   O        4.15790        -9.37910         2.59975
   C        3.61216        -7.20035         3.34703
   N        2.76052        -7.03865         2.36192
   C        1.56496        -3.70817         3.04659
   S        0.49259        -3.97322         1.71316
   C        1.54361        -2.51209         3.83531
   C        0.41480        -1.77806         4.00690
   C        0.31696        -0.61113         4.81785
   C       -0.90568         0.03907         4.95423
   C       -1.05517         1.20278         5.72631
   N       -1.17543         2.15830         6.35198
   C       -2.06932        -0.43100         4.32327
   N       -3.01513        -0.82755         3.80639
   C        1.47434        -0.09918         5.47236
   C        2.72167        -0.64415         5.43974
   S        3.09041        -2.11639         4.55504
   C        3.80965         0.07444         6.04012
   C        5.11822        -0.23008         6.18652
   C        6.07740         0.91008         6.37612
   O        5.80756         2.02531         6.73919
   C        7.38157         0.37324         5.94110
   C        7.26537        -1.00730         5.68683
   C        5.91247        -1.43864         6.03744
   C        5.56440        -2.69080         6.46047
   C        4.32571        -2.94164         7.09576
   N        3.34463        -3.07797         7.67237
   C        6.47916        -3.76390         6.40841
   N        7.25582        -4.60504         6.34138
   C        8.35627        -1.71203         5.20815
   C        9.55232        -1.03198         5.00812
   C        9.66764         0.33301         5.28865
   C        8.57226         1.04712         5.75631
  Br       11.31046         1.22543         5.02370
  Br       11.03556        -1.98898         4.33911
   H        1.25929       -15.12880        -3.01996
   H       -3.09879       -12.78948        -2.45973
   H        2.39019       -10.03538        -1.22821
   H       -0.50028        -8.53115        -2.86250
   H       -0.73129        -5.02692        -0.42128
   H        6.17056        -7.81361         6.27246
   H        5.89654        -9.52364         4.51352
   H       -0.48938        -2.11766         3.51657
   H        1.34012         0.80996         6.04529
   H        3.56251         1.09483         6.32174
   H        8.30175        -2.76336         4.97699
   H        8.64714         2.10229         5.96882
*
