# ORCA input file
# SCF done       -184.750353113890          0.000686064735
! CAM-B3LYP def2-SVP def2/J RIJCOSX Grid4 TightSCF
%maxcore 5000
%tddft
    Mode sTDDFT
    Ethresh 5.0
    maxcore 5000
end

%pal
  nprocs 6
  end
* xyz 0 1
   C      -13.02822         5.29203         0.03923
   C      -13.68193         4.51175         0.95867
   C      -14.57046         5.00826         1.93318
   N      -15.30348         5.35533         2.74580
   C      -13.54875         3.11093         1.03217
   N      -13.46332         1.96951         1.12405
   C      -13.13306         6.74361        -0.08599
   C      -12.33286         7.17260        -1.17887
   C      -12.18917         8.49532        -1.52432
   C      -12.87799         9.44119        -0.75889
   C      -13.68955         9.00672         0.31645
   C      -13.82726         7.66829         0.66966
   S      -14.44875        10.34552         1.11968
   C      -13.67016        11.45469         0.01868
   C      -12.88339        10.85478        -0.90547
  Br      -13.97606        13.29476         0.20086
   C      -11.71093         5.99987        -1.79205
   O      -10.98357         5.96635        -2.78088
   C      -12.11380         4.84271        -0.98529
   C      -11.58445         3.59566        -1.21143
   N      -10.69380         3.41506        -2.19809
   C      -10.04147         2.27300        -2.51796
   S      -10.55523         0.74773        -1.85670
   C       -9.33910        -0.05088        -2.80165
   N       -9.22936        -1.43693        -2.70287
   O       -8.37703        -1.98877        -3.38408
   O       -9.99199        -2.01120        -1.94665
   C       -8.59208         0.80680        -3.56397
   C       -8.96014         2.15945        -3.41013
   C       -8.24489         3.19060        -4.10313
   C       -8.27598         4.53189        -3.91533
   C       -7.52412         5.45034        -4.68304
   S       -6.37872         4.96366        -5.90440
   C       -5.99372         6.61805        -6.30835
   C       -6.75166         7.49191        -5.51797
   C       -7.58786         6.84032        -4.61044
   S       -8.68116         7.60667        -3.46793
   C       -8.79085         9.31842        -3.85716
   O       -9.65428         9.94424        -3.29304
   C       -7.83194        10.03957        -4.77229
   O       -7.88360        11.23862        -4.85661
   S       -6.57474         9.22818        -5.70868
   C       -5.04384         6.94160        -7.28305
   C       -4.31544         5.98673        -7.95124
   C       -3.34014         6.22004        -8.91226
   C       -2.61826         5.19546        -9.50340
   C       -1.60080         5.28896       -10.47198
   C       -1.06302         4.08381       -10.84195
   C       -1.63269         2.98369       -10.18183
   S       -2.88005         3.51809        -9.07799
   C       -1.33287         1.63155       -10.29253
   C       -0.37002         0.99243       -11.09620
   C       -0.34174        -0.36493       -10.94175
   C       -1.27849        -0.87241       -10.01182
   S       -2.20220         0.46027        -9.33955
   C       -1.45215        -2.19492        -9.67335
   C       -2.36999        -2.74351        -8.76038
   C       -3.33581        -2.10199        -7.97055
   C       -4.02213        -3.07536        -7.21658
   C       -5.05161        -2.95952        -6.30238
   C       -5.53102        -4.13274        -5.71373
   C       -6.53904        -4.34279        -4.77896
   C       -6.63342        -5.74323        -4.51009
   C       -5.68332        -6.39629        -5.27813
   C       -4.96557        -5.43022        -6.05073
   C       -3.94508        -5.55273        -6.95345
   C       -3.45495        -4.37016        -7.55492
   C       -2.46030        -4.15423        -8.48576
   C       -7.55619        -6.37685        -3.59904
   C       -8.46391        -5.73588        -2.86680
   H      -11.55602         8.80324        -2.34181
   H      -14.44713         7.38835         1.50510
   H      -12.32069        11.37667        -1.65799
   H      -11.82820         2.73856        -0.59708
   H      -10.52417         4.26571        -2.76270
   H       -7.79420         0.46885        -4.20039
   H       -7.56763         2.81775        -4.86185
   H       -8.87377         5.00042        -3.14948
   H       -4.88459         7.99169        -7.48546
   H       -4.50949         4.95034        -7.69542
   H       -3.11712         7.23455        -9.21223
   H       -1.28830         6.23823       -10.87002
   H       -0.27657         3.97056       -11.56676
   H        0.27362         1.54030       -11.76073
   H        0.32886        -1.01870       -11.47175
   H       -0.79854        -2.89805       -10.17600
   H       -3.53943        -1.04994        -7.92931
   H       -5.47737        -2.00015        -6.04705
   H       -7.14506        -3.57674        -4.33247
   H       -5.50543        -7.45632        -5.29818
   H       -3.51887        -6.51291        -7.20870
   H       -1.84069        -4.90356        -8.94545
   H       -7.47324        -7.45527        -3.53732
   H       -8.57945        -4.66713        -2.90353
   H       -9.12931        -6.26506        -2.20684
*
