# ORCA input file
# SCF done       -184.709969994415          0.000668320916
! CAM-B3LYP def2-SVP def2/J RIJCOSX Grid4 TightSCF
%maxcore 5000
%tddft
    Mode sTDDFT
    Ethresh 5.0
    maxcore 5000
end

%pal
  nprocs 6
  end
* xyz 0 1
   C       -4.27661        -2.04980        -1.82703
   C       -4.25698        -3.05055        -0.88835
   C       -3.92046        -4.39040        -1.16460
   N       -3.65347        -5.49477        -1.33060
   C       -4.58185        -2.86194         0.46963
   N       -4.83645        -2.75145         1.58394
   C       -3.95360        -2.20148        -3.24452
   C       -4.11732        -0.94769        -3.88947
   C       -3.88754        -0.76686        -5.23197
   C       -3.47188        -1.87616        -5.97635
   C       -3.30667        -3.12124        -5.32518
   C       -3.54227        -3.30413        -3.96628
   S       -2.78147        -4.35371        -6.42969
   C       -2.79164        -3.19581        -7.73408
   C       -3.16908        -1.94909        -7.36338
  Br       -2.30266        -3.74386        -9.45961
   C       -4.54164         0.04007        -2.89354
   O       -4.78230         1.23334        -3.08697
   C       -4.62402        -0.66551        -1.61628
   C       -4.98056        -0.01276        -0.45449
   N       -5.25637         1.29308        -0.50315
   C       -5.61124         2.13292         0.49670
   S       -5.78845         1.60589         2.14069
   C       -6.19731         3.23244         2.58585
   N       -6.49301         3.48761         3.93192
   O       -6.78277         4.62882         4.23890
   O       -6.43809         2.54059         4.69597
   C       -6.19278         4.11478         1.53985
   C       -5.85797         3.50562         0.31411
   C       -5.78062         4.13929        -0.96747
   C       -5.87061         5.47186        -1.19008
   C       -5.81030         6.11563        -2.45365
   S       -5.59991         7.84634        -2.45849
   C       -5.62415         7.91363        -4.19939
   C       -5.77608         6.63212        -4.73157
   C       -5.89089         5.63099        -3.75777
   C       -6.11497         4.19494        -4.11793
   C       -6.47059         4.02651        -5.59171
   C       -5.48454         4.83845        -6.44246
   C       -5.68680         4.46649        -7.88354
   O       -5.00355         3.69854        -8.49981
   C       -5.74775         6.32414        -6.19796
   C       -5.49814         9.17870        -4.81253
   C       -5.82804         9.49399        -6.10178
   C       -5.67819        10.76374        -6.66879
   C       -6.11191        11.07040        -7.94037
   C       -5.99912        12.29925        -8.62591
   C       -6.55036        12.29925        -9.87597
   C       -7.13819        11.07317       -10.24146
   S       -6.94780         9.90441        -8.95343
   C       -7.81584        10.75013       -11.40534
   C       -8.05372        11.55905       -12.53580
   C       -8.78738        10.94385       -13.50619
   C       -9.17979         9.61770       -13.19937
   S       -8.54639         9.17837       -11.62098
   C       -9.95640         8.80911       -13.99112
   C      -10.41534         7.50322       -13.72593
   C      -11.29233         6.79430       -14.62296
   C      -11.58925         5.56146       -14.08331
   C      -12.40394         4.50367       -14.54820
   C      -12.50600         3.38894       -13.76328
   C      -13.23390         2.16805       -13.92768
   C      -12.99762         1.35605       -12.83486
   C      -12.10919         2.04899       -11.95070
   C      -11.80044         3.28508       -12.49634
   C      -10.98826         4.33251       -12.03187
   C      -10.88631         5.46019       -12.81518
   C      -10.17494         6.67121       -12.62940
   C      -13.56049         0.04201       -12.63823
   C      -13.34059        -0.74501       -11.58837
   H       -4.02019         0.19754        -5.69696
   H       -3.40125        -4.27307        -3.51745
   H       -3.23170        -1.11420        -8.03739
   H       -5.04470        -0.50967         0.50426
   H       -5.16490         1.68700        -1.45957
   H       -6.43389         5.15367         1.66886
   H       -5.61081         3.48770        -1.80624
   H       -5.96412         6.14277        -0.34674
   H       -6.92115         3.78536        -3.50426
   H       -5.20922         3.61789        -3.91034
   H       -7.48571         4.38195        -5.78093
   H       -6.42283         2.96857        -5.85435
   H       -4.46442         4.57326        -6.14829
   H       -6.57513         4.94124        -8.34811
   H       -6.71031         6.58839        -6.64992
   H       -4.97440         6.92662        -6.68103
   H       -5.15389         9.97700        -4.16668
   H       -6.27443         8.74606        -6.73874
   H       -5.20562        11.54833        -6.09374
   H       -5.51495        13.14832        -8.17649
   H       -6.55540        13.15005       -10.53368
   H       -7.68197        12.56563       -12.60386
   H       -9.06857        11.40583       -14.43647
   H      -10.27292         9.24129       -14.93309
   H      -11.65161         7.18696       -15.55776
   H      -12.92485         4.58894       -15.49168
   H      -13.86032         1.93274       -14.76870
   H      -11.74291         1.66857       -11.01492
   H      -10.46627         4.24961       -11.08921
   H       -9.55731         6.88944       -11.78004
   H      -14.21267        -0.29741       -13.43348
   H      -12.70084        -0.45205       -10.77370
   H      -13.79637        -1.71657       -11.50808
*
