# ORCA input file
# SCF done       -189.763147656932          0.000821023940
! CAM-B3LYP def2-SVP def2/J RIJCOSX Grid4 TightSCF
%maxcore 5000
%tddft
    Mode sTDDFT
    Ethresh 5.0
    maxcore 5000
end

%pal
  nprocs 6
  end
* xyz 0 1
   C       -3.89055        -1.60559        -1.55033
   C       -2.57752        -1.56597        -1.15455
   C       -1.66690        -2.62753        -1.33349
   N       -0.87813        -3.45301        -1.45555
   C       -1.95505        -0.48812        -0.49138
   N       -1.37430         0.33307         0.06415
   C       -4.55606        -2.75060        -2.15399
   C       -5.93249        -2.45190        -2.29517
   C       -6.83350        -3.33879        -2.83206
   C       -6.35324        -4.58399        -3.24993
   C       -4.97468        -4.87301        -3.10996
   C       -4.06381        -3.97574        -2.56797
   S       -4.59347        -6.46455        -3.69563
   C       -6.26833        -6.71664        -4.11124
   C       -7.07300        -5.66512        -3.82829
  Br       -6.79593        -8.34404        -4.88043
   C       -6.20183        -1.08934        -1.79194
   O       -7.27821        -0.53382        -1.79955
   C       -4.87980        -0.55345        -1.37127
   C       -4.58867         0.74338        -1.07788
   C       -5.48779         1.83066        -0.80939
   C       -5.07118         3.12842        -1.16231
   C       -5.90285         4.19312        -0.93141
   C       -7.15235         3.99780        -0.31416
   C       -7.55106         2.72904         0.08535
   C       -6.72167         1.65666        -0.16578
   C       -7.79663         5.28248        -0.17206
   C       -6.94911         6.27508        -0.69869
   C       -5.70025         5.65259        -1.28053
   C       -4.42105         6.22597        -0.65233
   C       -4.37773         6.03051         0.85900
   C       -5.67083         5.74867        -2.82471
   C       -5.67595         7.15712        -3.40365
   C       -7.30203         7.59940        -0.60609
   C       -8.52848         7.96225        -0.02269
   C       -9.37496         6.95412         0.46177
   C       -9.01510         5.62516         0.39963
   C       -8.85079         9.36576         0.04953
   C       -9.93812         9.90279         0.64257
   C      -10.24216        11.29164         0.71890
   S      -11.65598        11.80508         1.58242
   C      -11.36268        13.49338         1.27274
   C      -10.20678        13.63130         0.51823
   C       -9.58431        12.40709         0.21306
   O       -8.43757        12.25318        -0.50961
   C       -7.68121        13.22980        -1.02353
   O       -6.68663        12.93422        -1.62911
   C       -8.04738        14.69468        -0.86589
   O       -7.35240        15.56161        -1.31907
   S       -9.53149        15.16564        -0.01668
   C      -12.27061        14.43873         1.82152
   C      -12.23444        15.78180         1.67782
   C      -13.17143        16.63933         2.33298
   C      -13.18877        17.98339         2.29253
   C      -12.25856        18.83200         1.48788
   C      -14.20958        18.74781         3.10225
   N      -15.16601        19.42732         2.26206
   C      -15.06519        20.72913         1.91149
   C      -15.79643        21.32143         0.93222
   C      -15.74023        22.70068         0.65450
   C      -16.49635        23.33629        -0.29094
   C      -16.49642        24.71985        -0.60187
   C      -17.37418        25.07965        -1.57394
   C      -18.12699        24.00039        -2.10225
   S      -17.66935        22.50443        -1.31303
   C      -19.08976        24.04393        -3.08162
   C      -19.56141        25.18741        -3.78177
   C      -20.52516        24.92759        -4.69381
   C      -20.89411        23.54499        -4.79086
   S      -19.93092        22.60619        -3.63922
   C      -21.80925        22.99361        -5.60023
   H       -7.87664        -3.07988        -2.92477
   H       -3.02301        -4.24103        -2.48808
   H       -8.13049        -5.64990        -4.01924
   H       -3.54182         1.02589        -1.08571
   H       -4.10753         3.26429        -1.63206
   H       -8.49489         2.58135         0.58755
   H       -7.01055         0.67366         0.16578
   H       -4.36087         7.29185        -0.87456
   H       -3.55614         5.73832        -1.10641
   H       -5.22719         6.51743         1.33359
   H       -3.46462         6.45919         1.26505
   H       -4.40296         4.97310         1.11305
   H       -6.53929         5.20803        -3.21085
   H       -4.77700         5.22431        -3.17023
   H       -6.60404         7.67096        -3.16946
   H       -5.58768         7.09950        -4.48646
   H       -4.84160         7.74460        -3.03050
   H       -6.64345         8.37831        -0.95994
   H      -10.32480         7.21847         0.89943
   H       -9.66930         4.86212         0.79392
   H       -8.13232        10.02595        -0.41379
   H      -10.66762         9.26942         1.12788
   H      -13.05742        13.99952         2.42238
   H      -11.46407        16.23688         1.07726
   H      -13.90812        16.13513         2.94743
   H      -11.82723        18.28764         0.65399
   H      -11.44438        19.19220         2.11849
   H      -12.78511        19.70239         1.09764
   H      -13.70628        19.50136         3.71520
   H      -14.75037        18.06559         3.76592
   H      -15.72631        18.83776         1.66327
   H      -14.38929        21.31751         2.51833
   H      -16.47392        20.72230         0.33862
   H      -15.05764        23.30839         1.23468
   H      -15.84451        25.40443        -0.08731
   H      -17.50580        26.08624        -1.92842
   H      -19.16698        26.16802        -3.58072
   H      -21.00026        25.66637        -5.31471
   H      -22.37296        23.60173        -6.28518
   H      -22.00751        21.93775        -5.59371
*
