# ORCA input file
# SCF done       -218.481685658098          0.000767051325
! CAM-B3LYP def2-SVP def2/J RIJCOSX Grid4 TightSCF
%maxcore 5000
%tddft
    Mode sTDDFT
    Ethresh 5.0
    maxcore 5000
end

%pal
  nprocs 6
  end
* xyz 0 1
   C       -3.32001        -0.48064         0.78428
   C       -4.26968        -1.46595         0.89378
   C       -4.00316        -2.84069         0.72918
   N       -3.85048        -3.97291         0.61221
   C       -5.63742        -1.27220         1.17764
   N       -6.76585        -1.21423         1.38677
   C       -1.92215        -0.70027         0.43515
   C       -1.26697         0.55322         0.38191
   C        0.06413         0.68526         0.06936
   C        0.78565        -0.47900        -0.21290
   C        0.12462        -1.72882        -0.15522
   C       -1.22033        -1.86152         0.16653
   S        1.20157        -3.03862        -0.53622
   C        2.50525        -1.90378        -0.76799
   C        2.15557        -0.61089        -0.56919
  Br        4.20547        -2.53296        -1.25113
   C       -2.22836         1.62471         0.70459
   O       -1.95119         2.80165         0.82689
   C       -3.52479         0.95101         0.93463
   C       -4.67808         1.53139         1.37931
   C       -5.04223         2.91388         1.43505
   C       -5.99838         3.29366         2.39989
   C       -6.38908         4.60308         2.50026
   C       -5.81763         5.57222         1.65113
   C       -4.93200         5.19861         0.64662
   C       -4.55257         3.87946         0.54049
   C       -6.32599         6.86781         2.02321
   C       -7.25338         6.70246         3.06690
   C       -7.35530         5.24705         3.47364
   C       -8.81009         4.78055         3.26073
   C       -9.09442         3.31263         3.55288
   C       -6.81714         5.01485         4.90219
   C       -7.66255         5.58032         6.03580
   C       -7.95735         7.78606         3.53107
   C       -7.69948         9.06668         3.02048
   C       -6.71107         9.22093         2.03960
   C       -6.03763         8.13282         1.52723
   C       -8.51918        10.16155         3.49248
   C       -8.33179        11.47158         3.27473
   C       -9.29312        12.49567         3.65530
   C       -8.94614        13.80429         4.02469
   N       -7.70529        14.37894         4.24729
   C       -6.54642        13.64401         4.71310
   C       -6.88634        12.74204         5.89836
   C       -7.89421        15.72793         4.48495
   C       -9.27849        16.01491         4.48489
   C       -9.95136        14.78462         4.18959
   C      -11.29729        14.47323         4.06658
   C      -11.64035        13.16998         3.76790
   C      -10.65732        12.21461         3.55779
   C       -9.75612        17.28991         4.74684
   C       -8.83613        18.28890         4.99931
   C       -7.47695        18.02615         4.94627
   C       -6.95326        16.75828         4.66691
   C       -5.52954        16.58916         4.46552
   C       -4.58242        17.38628         5.01460
   C       -3.19155        17.35465         4.74832
   C       -2.42618        16.38505         4.16161
   C       -1.05492        16.55098         3.82745
   C       -0.46826        15.46120         3.27208
   C       -1.31828        14.33340         3.16880
   S       -2.92145        14.74140         3.76019
   C       -0.95818        13.09415         2.68944
   C        0.25357        12.78347         2.02353
   C        0.36462        11.48638         1.64888
   C       -0.72657        10.65256         2.02947
   S       -1.94096        11.64752         2.84022
   C       -0.74811         9.31292         1.78395
   C       -1.64118         8.27641         2.19818
   C       -1.39978         6.96365         1.71433
   O       -0.36556         6.82924         0.83875
   C       -0.22310         5.64503         0.07793
   C       -1.23149         5.58244        -1.06954
   C       -0.98020         4.37489        -1.96073
   C       -2.18150         5.91622         2.18149
   C       -3.17055         6.14136         3.11782
   C       -3.44511         7.42933         3.58077
   C       -2.68577         8.48388         3.10673
   O       -4.46709         7.52865         4.48183
   C       -4.67795         8.75568         5.14749
   C       -3.61020         9.02857         6.20985
   C       -3.79939        10.39154         6.85912
   H        0.53547         1.65554         0.03870
   H       -1.67453        -2.83735         0.20016
   H        2.83396         0.21667        -0.66900
   H       -5.43375         0.86213         1.77383
   H       -6.37889         2.53977         3.07254
   H       -4.54560         5.93914        -0.03745
   H       -3.88840         3.57527        -0.25162
   H       -9.07365         4.99016         2.22016
   H       -9.45514         5.39887         3.88705
   H       -8.59322         2.66625         2.83837
   H      -10.16420         3.13077         3.47135
   H       -8.78261         3.03935         4.55735
   H       -5.82556         5.47126         4.94946
   H       -6.69770         3.94006         5.05134
   H       -7.71474         6.66338         5.97763
   H       -7.20370         5.31916         6.98746
   H       -8.67109         5.17507         6.02653
   H       -8.72425         7.67380         4.28344
   H       -6.49676        10.20448         1.65012
   H       -5.29888         8.26151         0.75008
   H       -9.37568         9.85857         4.08324
   H       -7.45145        11.81583         2.75183
   H       -5.80530        14.37082         5.04463
   H       -6.10392        13.05874         3.90297
   H       -7.37722        13.32276         6.67676
   H       -5.96973        12.32254         6.30220
   H       -7.54122        11.92640         5.60549
   H      -12.05016        15.23541         4.19539
   H      -12.67877        12.89227         3.66601
   H      -10.95425        11.22109         3.25719
   H      -10.81621        17.49092         4.74474
   H       -9.17203        19.29386         5.20730
   H       -6.79159        18.84996         5.07169
   H       -5.22737        15.83844         3.74914
   H       -4.89336        18.16513         5.69878
   H       -2.64234        18.24006         5.04735
   H       -0.55414        17.48736         4.00130
   H        0.56164        15.42345         2.96619
   H        0.99436        13.53497         1.81837
   H        1.20942        11.07709         1.12336
   H        0.09272         8.95346         1.20459
   H       -0.30430         4.75071         0.70267
   H        0.79428         5.70323        -0.32162
   H       -1.15740         6.50391        -1.65180
   H       -2.23549         5.52604        -0.64727
   H        0.01927         4.41256        -2.38903
   H       -1.70172         4.34544        -2.77370
   H       -1.07467         3.46077        -1.38051
   H       -2.02582         4.90801         1.83544
   H       -3.74534         5.31563         3.50448
   H       -2.86159         9.48949         3.44801
   H       -5.65943         8.64808         5.61794
   H       -4.73574         9.58426         4.43091
   H       -2.62349         8.97657         5.74576
   H       -3.66196         8.24163         6.96488
   H       -3.71388        11.18113         6.11508
   H       -3.04104        10.55522         7.62042
   H       -4.77827        10.45690         7.32949
*
