# ORCA input file
# SCF done       -192.439199140882          0.000337032035
! CAM-B3LYP def2-SVP def2/J RIJCOSX Grid4 TightSCF
%maxcore 5000
%tddft
    Mode sTDDFT
    Ethresh 5.0
    maxcore 5000
end

%pal
  nprocs 6
  end
* xyz 0 1
   C       -8.08814        -1.76790        -1.79048
   C       -8.30531        -1.62747        -3.14450
   C       -9.01168        -2.55617        -3.92863
   N       -9.60911        -3.24689        -4.62671
   C       -7.90102        -0.54517        -3.94241
   N       -7.59486         0.27272        -4.69176
   C       -8.43052        -2.95569        -1.01418
   C       -8.12573        -2.70943         0.34604
   C       -8.33007        -3.64270         1.33037
   C       -8.84357        -4.88957         0.95216
   C       -9.13628        -5.12977        -0.41015
   C       -8.93992        -4.17914        -1.40507
   S       -9.75742        -6.73372        -0.65876
   C       -9.61585        -7.05546         1.04830
   C       -9.12957        -6.01700         1.76918
  Br      -10.12262        -8.73152         1.72072
   C       -7.59842        -1.33331         0.48072
   O       -7.42395        -0.73453         1.52218
   C       -7.49806        -0.80868        -0.89433
   C       -7.10263         0.46778        -1.23111
   C       -6.39525         1.39123        -0.45555
   S       -6.61121         3.08626        -0.84173
   C       -5.62147         3.59449         0.49331
   C       -5.06899         2.47255         1.13845
   C       -5.49489         1.24510         0.61600
   O       -5.05683         0.02846         1.00221
   C       -4.75707        -0.10071         2.38481
   C       -3.35968         0.39973         2.75765
   C       -3.05982         1.75169         2.10297
   O       -4.15396         2.65482         2.13676
   C       -5.41131         4.92435         0.86518
   C       -5.88205         6.03753         0.20211
   C       -5.72650         7.39381         0.57685
   C       -6.30037         8.28684        -0.28437
   C       -6.92246         7.68116        -1.39191
   S       -6.78269         5.93649        -1.28882
   C       -7.56843         8.21188        -2.49705
   C       -7.89060         9.54034        -2.85268
   C       -8.54271         9.64035        -4.04703
   C       -8.74988         8.40180        -4.70943
   S       -8.08720         7.10740        -3.73770
   C       -9.45992         8.15695        -5.86162
   C       -9.55762         6.87443        -6.43790
   S      -10.99480         6.31486        -7.25321
   C      -10.38364         4.68489        -7.37538
   C       -9.10248         4.60484        -6.81584
   C       -8.61358         5.84675        -6.36600
   O       -7.32767         6.10144        -6.01384
   C       -6.35312         5.26473        -6.62077
   C       -6.20231         3.91877        -5.90726
   C       -7.57377         3.35421        -5.54141
   O       -8.49970         3.41678        -6.62148
   C      -11.20783         3.64179        -7.82833
   C      -10.88408         2.34144        -8.10798
   C       -9.63857         1.66568        -8.36283
   C       -8.51282         2.20678        -8.93342
   C       -7.33344         1.48786        -9.20528
   N       -6.33228         0.97350        -9.43380
   C       -8.41384         3.55025        -9.33395
   N       -8.27887         4.64436        -9.65837
   C       -9.85065         0.24643        -8.10540
   C      -11.23860         0.01855        -7.92847
   C      -11.95441         1.30695        -8.02100
   O      -13.14830         1.50045        -7.98371
   C      -11.75085        -1.23196        -7.68029
   C      -10.85216        -2.30110        -7.59129
   C       -9.46754        -2.05695        -7.75537
   C       -8.94846        -0.79433        -8.01508
   S       -8.53921        -3.51283        -7.59227
   C       -9.99943        -4.41675        -7.30406
   C      -11.12820        -3.67203        -7.33604
  Br       -9.89288        -6.25443        -6.98101
   H       -8.09649        -3.42490         2.36079
   H       -9.18074        -4.41120        -2.42895
   H       -8.97909        -6.04385         2.83298
   H       -7.42374         0.85016        -2.19381
   H       -5.51841         0.43088         2.96470
   H       -4.84662        -1.16795         2.59684
   H       -2.59956        -0.31057         2.43104
   H       -3.31432         0.48489         3.84350
   H       -2.25149         2.25879         2.63579
   H       -2.75002         1.59935         1.06112
   H       -4.82872         5.07340         1.76404
   H       -5.19747         7.66874         1.47219
   H       -6.27798         9.35432        -0.15542
   H       -7.64650        10.37601        -2.22129
   H       -8.87796        10.56652        -4.47982
   H      -10.03900         8.95877        -6.29714
   H       -6.61668         5.11028        -7.67427
   H       -5.42129         5.83225        -6.57112
   H       -5.63168         4.03446        -4.98583
   H       -5.67247         3.23344        -6.56883
   H       -7.50147         2.29250        -5.29503
   H       -7.98374         3.89752        -4.68063
   H      -12.27045         3.86292        -7.85901
   H      -12.81147        -1.38313        -7.55319
   H       -7.88579        -0.64973        -8.11868
   H      -12.11375        -4.06761        -7.17184
*
