# ORCA input file
# SCF done       -208.095564467721          0.000821256961
! CAM-B3LYP def2-SVP def2/J RIJCOSX Grid4 TightSCF
%maxcore 5000
%tddft
    Mode sTDDFT
    Ethresh 5.0
    maxcore 5000
end

%pal
  nprocs 6
  end
* xyz 0 1
   C       -4.76522       -11.30095        -6.52403
   C       -4.71493       -11.16279        -7.88341
   F       -4.52248       -12.23407        -8.66198
   C       -4.86472        -9.89559        -8.48198
   F       -4.81159        -9.78917        -9.81573
   C       -5.06275        -8.78348        -7.71226
   C       -5.11988        -8.89410        -6.30955
   C       -4.96871       -10.17455        -5.70258
   C       -5.02555       -10.31009        -4.29528
   C       -5.22983        -9.20071        -3.51963
   C       -5.38095        -7.92474        -4.13667
   C       -5.32782        -7.76202        -5.49143
   C       -5.60163        -6.91826        -3.09442
   O       -5.77364        -5.71087        -3.24751
   C       -5.58846        -7.63689        -1.81699
   C       -5.34180        -9.03833        -2.06965
   C       -5.22514       -10.03734        -1.13995
   C       -5.32587        -9.83113         0.25143
   N       -5.39879        -9.69914         1.38926
   C       -4.98122       -11.38951        -1.45728
   N       -4.78680       -12.50228        -1.65985
   C       -5.82162        -6.98330        -0.62903
   N       -6.04666        -5.66605        -0.64183
   C       -6.35790        -4.85025         0.39433
   S       -6.50684        -5.41731         2.02479
   C       -6.96024        -3.81545         2.51112
   N       -7.22136        -3.60738         3.87647
   O       -7.52828        -2.48706         4.22802
   O       -7.11329        -4.57899         4.60149
   C       -7.00071        -2.91117         1.48522
   C       -6.64557        -3.48573         0.24899
   C       -6.56183        -2.80434        -1.01329
   C       -7.15842        -1.63486        -1.31487
   C       -7.04716        -1.02341        -2.59766
   C       -7.80982         0.03287        -3.07668
   C       -8.79714         0.63445        -2.27729
   N       -9.58452         1.08469        -1.57646
   C       -7.48685         0.37606        -4.41644
   C       -6.46107        -0.42688        -4.90543
   S       -5.89843        -1.60186        -3.78556
   S       -5.99168        -0.10813        -6.54449
   C       -7.21837         1.11589        -6.60027
   C       -7.93682         1.28309        -5.42008
   C       -8.94172         2.27525        -5.56906
   C       -9.70991         2.80454        -4.51714
   N      -10.24946         3.31164        -3.64046
   C       -8.96971         2.80261        -6.85193
   S       -7.71533         2.15628        -7.87737
   C       -9.91989         3.72771        -7.38750
   C      -11.25279         3.76194        -6.93806
   C      -12.19987         4.72979        -7.43613
   N      -13.38789         4.83834        -6.81728
   C      -13.72068         3.98534        -5.88668
   C      -12.87388         2.85711        -5.59734
   N      -11.67113         2.80018        -6.09851
   C      -13.34751         1.78171        -4.80564
   N      -13.77000         0.91553        -4.18709
   C      -14.94988         4.15062        -5.20163
   N      -15.95042         4.24592        -4.65239
   C      -11.89628         5.59486        -8.51064
   C      -10.57688         5.51223        -8.99870
   C       -9.60669         4.59425        -8.44544
   N       -8.42754         4.67159        -9.06731
   S       -8.52895         5.76911       -10.23206
   N      -10.04994         6.20856       -10.01386
   C      -12.87641         6.49099        -9.09264
   C      -12.47270         7.72059        -9.63745
   C      -13.40662         8.53967       -10.21774
   C      -14.75988         8.16174       -10.27417
   C      -15.16907         6.94853        -9.73900
   C      -14.22899         6.12516        -9.15573
   C      -15.50280         9.20493       -10.95153
   C      -14.60812        10.22551       -11.31240
   C      -13.20247         9.88964       -10.86753
   C      -12.68149        10.91617        -9.85702
   C      -12.25112         9.78208       -12.06345
   C      -15.06074        11.34081       -11.98337
   C      -16.41170        11.43386       -12.29179
   C      -17.29587        10.42637       -11.93389
   C      -16.85138         9.30173       -11.26017
   H       -4.64890       -12.27858        -6.08299
   H       -5.17618        -7.82062        -8.18530
   H       -4.90886       -11.29284        -3.86813
   H       -5.44629        -6.78393        -5.93235
   H       -5.84423        -7.49005         0.32715
   H       -6.02040        -5.25856        -1.59802
   H       -7.25727        -1.87839         1.63445
   H       -5.98083        -3.28801        -1.78902
   H       -7.79531        -1.12619        -0.60454
   H      -11.43674         8.01308        -9.57964
   H      -16.20332         6.64380        -9.78762
   H      -14.53474         5.16652        -8.76880
   H      -13.35730        10.98494        -9.00729
   H      -12.60621        11.89663       -10.32096
   H      -11.69793        10.62458        -9.49675
   H      -12.63129         9.05936       -12.78225
   H      -11.26730         9.45779       -11.73338
   H      -12.15514        10.74602       -12.55718
   H      -14.38352        12.13279       -12.26762
   H      -16.77950        12.30270       -12.81741
   H      -18.34189        10.52197       -12.18493
   H      -17.53908         8.51749       -10.98181
*
