# ORCA input file
# SCF done       -260.125864533657          0.000448550855
! CAM-B3LYP def2-SVP def2/J RIJCOSX Grid4 TightSCF
%maxcore 5000
%tddft
    Mode sTDDFT
    Ethresh 5.0
    maxcore 5000
end

%pal
  nprocs 6
  end
* xyz 0 1
   C        1.91106        -3.62329        -1.95406
   C        1.75554        -2.61156        -0.89168
   O        0.74106        -2.18023        -0.38107
   C        3.13333        -2.23432        -0.50007
   C        4.05988        -2.92737        -1.29497
   C        3.32514        -3.76390        -2.24069
   C        3.89460        -4.48759        -3.25825
   C        5.28438        -4.57985        -3.47740
   N        6.40265        -4.70482        -3.70673
   C        3.19498        -5.20649        -4.24987
   N        2.70880        -5.79515        -5.10850
   C        5.41713        -2.73107        -1.08690
   C        5.82124        -1.84904        -0.09567
   C        4.88790        -1.16891         0.67747
   C        3.52369        -1.35367         0.48671
  Cl        5.43412        -0.07849         1.89600
   C        0.94186        -4.44432        -2.48343
   C       -0.45163        -4.40252        -2.35130
   C       -1.32249        -3.41726        -1.89037
   C       -2.65317        -3.79254        -1.89644
   C       -2.82285        -5.10379        -2.38704
   S       -1.35118        -5.83299        -2.86190
   C       -4.14372        -5.59761        -2.34686
   C       -5.10381        -4.73153        -1.80637
  Si       -4.30895        -3.08294        -1.39305
   C       -4.41858        -2.58875         0.39704
   C       -3.27854        -2.34836         1.16898
   C       -3.38167        -1.93407         2.48421
   C       -4.62686        -1.75098         3.06125
   C       -5.77063        -1.98511         2.31534
   C       -5.66535        -2.39729         1.00106
   C       -4.90560        -1.75240        -2.55859
   C       -5.25896        -0.48230        -2.09745
   C       -5.69542         0.50028        -2.96657
   C       -5.78863         0.23617        -4.32256
   C       -5.44333        -1.01626        -4.80377
   C       -5.00816        -1.99579        -3.93240
   C       -6.35526        -5.33776        -1.74520
   C       -6.37390        -6.63270        -2.23327
   S       -4.79840        -7.12843        -2.79727
   C       -7.47634        -7.52282        -2.26859
   C       -7.58477        -8.74165        -2.91104
   C       -8.80954        -9.37805        -2.70637
   C       -9.63940        -8.62325        -1.87089
   S       -8.93122        -7.13764        -1.37581
   C      -10.89124        -9.20060        -1.55668
   C      -11.15790       -10.44176        -2.14394
  Si       -9.69257       -10.95880        -3.19224
   C      -10.11358       -11.07621        -5.00365
   C       -9.21708       -11.65610        -5.90596
   C       -9.51726       -11.75885        -7.25075
   C      -10.72666       -11.28272        -7.72985
   C      -11.63077       -10.70341        -6.85554
   C      -11.32633       -10.60150        -5.51107
   C       -8.80708       -12.47534        -2.56627
   C       -9.09029       -13.73831        -3.09341
   C       -8.43601       -14.86845        -2.64135
   C       -7.47807       -14.76421        -1.64640
   C       -7.18087       -13.52361        -1.10755
   C       -7.83794       -12.39585        -1.56195
   C      -12.40741       -10.92636        -1.75598
   C      -13.08029       -10.09463        -0.88044
   S      -12.15524        -8.65197        -0.52908
   C      -14.34270       -10.29029        -0.26722
   C      -14.91050        -9.53721         0.74591
   C      -16.15717        -9.99968         1.15834
   C      -16.55242       -11.12439         0.42384
   S      -15.38344       -11.60774        -0.74698
   C      -17.81694       -11.65651         0.75087
   C      -18.48746       -11.02894         1.81387
  Si      -17.47912        -9.57013         2.41558
   C      -16.85211        -9.72822         4.16396
   C      -15.59767       -10.27342         4.45223
   C      -15.14289       -10.38047         5.75314
   C      -15.93370        -9.94489         6.80297
   C      -17.18094        -9.40135         6.54260
   C      -17.63152        -9.29535         5.24067
   C      -18.35833        -7.96345         2.07877
   C      -18.02685        -6.80051         2.78077
   C      -18.67508        -5.60531         2.53472
   C      -19.67356        -5.54278         1.57652
   C      -20.01770        -6.68178         0.86778
   C      -19.36885        -7.87711         1.11433
   C      -19.72018       -11.61773         2.05036
   C      -20.04329       -12.63464         1.16027
   S      -18.72188       -12.92737         0.04084
   C      -21.23812       -13.37873         1.14070
   C      -21.78943       -14.07228         0.10039
   C      -22.76252       -15.15945         0.35707
   O      -23.31957       -15.41320         1.40099
   C      -22.85902       -15.89637        -0.92620
   C      -22.10574       -15.22732        -1.90840
   C      -21.55376       -14.00781        -1.32308
   C      -21.16574       -12.89722        -2.03094
   C      -21.03884       -12.86512        -3.43289
   N      -20.90092       -12.79212        -4.57054
   C      -20.94941       -11.63530        -1.44161
   N      -20.82395       -10.57844        -1.00927
   C      -22.02645       -15.75043        -3.18928
   C      -22.70234       -16.92806        -3.47165
   C      -23.45377       -17.56914        -2.49353
   C      -23.54244       -17.06209        -1.20168
  Cl      -24.28983       -19.02305        -2.89127
   H        6.16052        -3.24922        -1.66989
   H        6.87312        -1.68721         0.08032
   H        2.79061        -0.83247         1.08182
   H        1.29871        -5.28787        -3.06319
   H       -0.97259        -2.45767        -1.56046
   H       -2.30152        -2.48522         0.72969
   H       -2.48637        -1.75160         3.06022
   H       -4.70738        -1.42635         4.08840
   H       -6.74526        -1.84357         2.75995
   H       -6.56173        -2.57340         0.42316
   H       -5.18815        -0.26949        -1.04017
   H       -5.96301         1.47541        -2.58616
   H       -6.12878         1.00314        -5.00275
   H       -5.51401        -1.22751        -5.86093
   H       -4.74098        -2.97111        -4.31514
   H       -7.23993        -4.86294        -1.35876
   H       -6.78729        -9.14421        -3.51098
   H       -8.27390       -12.03514        -5.53848
   H       -8.80842       -12.21289        -7.92798
   H      -10.96391       -11.36464        -8.78034
   H      -12.57643       -10.33227        -7.22307
   H      -12.03931       -10.15142        -4.83487
   H       -9.83282       -13.82686        -3.87383
   H       -8.67130       -15.83349        -3.06629
   H       -6.96382       -15.64620        -1.29393
   H       -6.43272       -13.43584        -0.33304
   H       -7.59670       -11.43055        -1.13961
   H      -12.82146       -11.86329        -2.08573
   H      -14.41397        -8.68134         1.16886
   H      -14.97227       -10.61313         3.63879
   H      -14.16843       -10.80371         5.94987
   H      -15.57940       -10.02742         7.81996
   H      -17.80185        -9.05883         7.35767
   H      -18.60364        -8.86572         5.04489
   H      -17.25127        -6.84322         3.53283
   H      -18.40273        -4.72023         3.09164
   H      -20.18195        -4.60907         1.38487
   H      -20.79622        -6.64098         0.12048
   H      -19.65129        -8.75809         0.55670
   H      -20.40526       -11.29480         2.81411
   H      -21.75989       -13.46447         2.08914
   H      -21.44480       -15.26890        -3.95881
   H      -22.64821       -17.35396        -4.46123
   H      -24.12362       -17.55486        -0.43846
*
