# ORCA input file
# SCF done       -252.640271948161          0.000543969036
! CAM-B3LYP def2-SVP def2/J RIJCOSX Grid4 TightSCF
%maxcore 5000
%tddft
    Mode sTDDFT
    Ethresh 5.0
    maxcore 5000
end

%pal
  nprocs 6
  end
* xyz 0 1
   C       -1.30373         2.19556         1.86247
   N       -0.82825         2.62800         3.01820
   C       -1.48204         2.23560         4.10334
   C       -2.59609         1.41950         4.03877
   C       -3.01757         1.01888         2.76384
   N       -2.35043         1.42363         1.67518
   C       -4.16961         0.16580         2.58520
   C       -4.61496        -0.20866         1.37262
   C       -5.74365        -1.04797         1.14311
   C       -6.24312        -1.42612        -0.07105
   C       -7.37832        -2.26778         0.00941
   C       -8.13125        -2.82238        -1.04563
   C       -7.86973        -2.51991        -2.43832
   C       -7.95452        -3.36007        -3.51136
   C       -7.70745        -2.70750        -4.73856
   C       -7.44520        -1.37331        -4.62760
   S       -7.48981        -0.90035        -2.96312
   C       -7.15230        -0.38709        -5.69789
  Cl       -7.74335        -3.54351        -6.24373
   C       -9.17721        -3.66546        -0.68347
   C       -9.52768        -3.93955         0.66129
   C       -8.79488        -3.35999         1.71485
   C       -7.72071        -2.55459         1.35513
   S       -6.66402        -1.73525         2.46784
   C       -9.16032        -3.60296         3.09658
   C      -10.40913        -3.62004         3.64692
   C      -10.39221        -3.92372         5.02604
   C       -9.14817        -4.14582         5.53982
   S       -7.95292        -3.96444         4.29987
   C       -8.76226        -4.49190         6.93113
  Cl      -11.83533        -4.00986         5.96356
   C      -10.63233        -4.82225         0.75054
   C      -11.13318        -5.19643        -0.46004
   S      -10.24721        -4.48157        -1.79138
   C      -12.23324        -6.06448        -0.72058
   C      -12.63826        -6.55357        -1.92602
   C      -13.77411        -7.39631        -1.84656
   C      -14.45283        -8.03118        -2.90513
   C      -13.92752        -7.99546        -4.25413
   C      -12.62423        -8.12108        -4.64340
   C      -12.46562        -8.05235        -6.04400
   C      -13.62856        -7.87377        -6.73511
   S      -14.96551        -7.79187        -5.63791
   C      -13.83015        -7.75144        -8.20085
  Cl      -10.92368        -8.18723        -6.80078
   C      -15.62360        -8.70398        -2.57532
   C      -16.11464        -8.80725        -1.24961
   C      -15.42150        -8.19430        -0.18555
   C      -14.25673        -7.50961        -0.51996
   S      -13.24901        -6.62324         0.59306
   C      -15.90117        -8.22541         1.18121
   C      -15.16528        -8.30207         2.32958
   C      -15.95922        -8.23114         3.49443
   C      -17.29602        -8.09022         3.26070
   S      -17.59565        -8.04902         1.55747
   C      -18.40502        -7.96682         4.24076
  Cl      -15.28488        -8.31672         5.07646
   C      -17.28831        -9.59581        -1.18764
   C      -17.70181       -10.05953        -2.40282
   S      -16.64460        -9.55525        -3.69870
   C      -18.85826       -10.85257        -2.67167
   C      -19.65145       -11.48483        -1.75954
   C      -20.74637       -12.17316        -2.33615
   C      -21.75291       -12.90875        -1.67983
   C      -21.82705       -13.00384        -0.23589
   C      -22.19805       -14.08001         0.51828
   C      -22.20134       -13.80482         1.90294
   C      -21.85210       -12.52695         2.22797
   S      -21.49767       -11.63088         0.79001
   C      -21.74097       -11.90112         3.57007
  Cl      -22.61475       -14.99709         3.07397
   C      -22.69563       -13.53699        -2.49256
   C      -22.69473       -13.42000        -3.90601
   C      -21.71669       -12.64212        -4.55772
   C      -20.74489       -12.06497        -3.74990
   S      -19.41701       -11.08816        -4.31065
   C      -21.75512       -12.44318        -5.99225
   C      -22.85035       -12.21404        -6.77523
   C      -22.52134       -12.06389        -8.13958
   C      -21.19028       -12.17894        -8.41598
   S      -20.30459       -12.47049        -6.95696
   C      -20.49928       -12.07360        -9.72599
  Cl      -23.71620       -11.76245        -9.34399
   C      -23.74627       -14.16574        -4.49364
   C      -24.53589       -14.79120        -3.57900
   S      -24.02832       -14.51541        -1.93923
   C      -25.68627       -15.62570        -3.83383
   N      -26.28889       -16.16142        -2.77210
   C      -27.34127       -16.92248        -3.00790
   C      -27.81032       -17.16134        -4.28889
   C      -27.11370       -16.55463        -5.34133
   N      -26.05239       -15.78943        -5.09936
   C      -27.52674       -16.73791        -6.72757
   C      -26.89538       -16.17457        -7.75013
   H       -0.77229         2.51194         0.97327
   H       -1.08910         2.59393         5.04646
   H       -3.12284         1.10347         4.92484
   H       -4.67344        -0.16742         3.48295
   H       -4.09046         0.14727         0.49612
   H       -5.79601        -1.11291        -0.99627
   H       -8.14879        -4.41384        -3.44043
   H       -7.13705        -0.88848        -6.66232
   H       -6.18673         0.08830        -5.52907
   H       -7.91135         0.39466        -5.71779
   H      -11.30877        -3.38558         3.10858
   H       -9.65517        -4.63278         7.53501
   H       -8.16043        -3.69694         7.37101
   H       -8.17241        -5.40742         6.94888
   H      -11.03127        -5.19229         1.67718
   H      -12.15057        -6.29037        -2.84672
   H      -11.80859        -8.30183        -3.96808
   H      -14.14197        -6.74022        -8.46271
   H      -14.60352        -8.43941        -8.53858
   H      -12.90083        -7.97570        -8.71873
   H      -14.10065        -8.44056         2.35690
   H      -18.10181        -8.39037         5.19568
   H      -19.29305        -8.48178         3.88043
   H      -18.66261        -6.91831         4.39690
   H      -17.81432        -9.81265        -0.27794
   H      -19.44123       -11.47511        -0.70749
   H      -22.42913       -15.04769         0.11494
   H      -22.10358       -12.59260         4.32643
   H      -22.32550       -10.98332         3.61589
   H      -20.70312       -11.65132         3.79167
   H      -23.85016       -12.11082        -6.39641
   H      -21.23343       -12.04225       -10.52737
   H      -19.83748       -12.92428        -9.87995
   H      -19.89561       -11.16678        -9.76748
   H      -23.90720       -14.26591        -5.54998
   H      -27.81842       -17.35091        -2.13539
   H      -28.67153       -17.78384        -4.46994
   H      -28.39273       -17.36886        -6.87696
   H      -26.03606       -15.54928        -7.57872
   H      -27.21286       -16.31796        -8.76847
*
