# ORCA input file
# SCF done       -182.555179475305          0.000829161570
! CAM-B3LYP def2-SVP def2/J RIJCOSX Grid4 TightSCF
%maxcore 5000
%tddft
    Mode sTDDFT
    Ethresh 5.0
    maxcore 5000
end

%pal
  nprocs 6
  end
* xyz 0 1
   C       14.48553        13.52797         6.30065
   C       14.41817        14.88572         6.30690
   S       15.26892        15.53801         7.66132
   C       15.72050        13.96838         8.22491
   C       15.23456        13.00581         7.40433
   C       15.25501        11.53580         7.32487
   O       15.79907        10.76644         8.09236
   C       14.46811        11.20864         6.11257
   C       14.01021        12.42238         5.48714
   C       13.26647        12.57781         4.33823
   C       12.90385        13.85724         3.87550
   N       12.59688        14.89002         3.47717
   C       12.78539        11.56184         3.49546
   N       12.35155        10.80915         2.74128
   C       14.20310         9.92419         5.67463
   C       14.64294         8.76028         6.29205
   C       14.31466         7.49704         5.83067
   C       14.69478         6.25767         6.38918
   C       14.19662         5.16932         5.72768
   C       13.40133         5.50312         4.61589
   S       13.30927         7.23938         4.42558
   C       12.72274         4.67408         3.73482
   C       12.62597         3.26725         3.71079
   C       11.84130         2.79140         2.70075
   C       11.28004         3.79294         1.86970
   S       11.80113         5.36939         2.43078
   C       10.43989         3.58033         0.80155
   C        9.88144         4.55301        -0.04394
   C       10.08476         5.92003        -0.07234
   C        9.35590         6.57995        -1.06723
   C        8.55232         5.69657        -1.83319
   S        8.74052         4.05371        -1.29393
   C        7.75094         6.14054        -2.86337
   O        7.01052         5.27503        -3.61989
   C        5.61121         5.28164        -3.36765
   C        7.79015         7.52617        -3.14015
   C        8.59320         8.42119        -2.37125
   C        9.37721         7.97752        -1.32053
   O       10.17413         8.67221        -0.48951
   C       10.25511        10.07916        -0.54862
   S        8.43536        10.05269        -2.99956
   C        7.31681         9.52966        -4.24722
   C        7.09754         8.17085        -4.17695
   C        6.78952        10.48624        -5.13475
   C        5.75269        10.30534        -6.01622
   C        5.23946        11.27849        -6.91141
   C        4.16334        10.86462        -7.63897
   C        3.76121         9.54245        -7.35321
   S        4.80741         8.83413        -6.15248
   C        2.70107         8.81258        -7.86622
   C        1.75146         9.17983        -8.83953
   C        0.81939         8.21107        -9.08561
   C        0.98795         7.03833        -8.31706
   S        2.38321         7.19754        -7.27637
   C        0.19450         5.90518        -8.32404
   C        0.45097         4.81612        -7.49928
   C       -0.30646         3.66391        -7.42671
   C       -1.52668         3.40596        -8.22761
   O       -2.04043         4.13074        -9.05632
   C       -1.98558         2.07470        -7.79778
   C       -3.00296         1.22734        -8.08684
   S       -2.88454        -0.21544        -7.14415
   C       -1.45053         0.33252        -6.35332
   C       -1.09104         1.56483        -6.80141
   C       -0.04425         2.54201        -6.56100
   C        0.97911         2.37183        -5.65547
   C        1.07475         1.19986        -4.88035
   N        1.16910         0.25118        -4.23953
   C        2.01481         3.27949        -5.37603
   N        2.89417         3.95968        -5.08041
   H       13.93408        15.55222         5.62183
   H       16.30757        13.86667         9.11539
   H       13.59592         9.80914         4.78324
   H       15.25920         8.83501         7.17618
   H       15.32019         6.20629         7.26258
   H       14.38078         4.14895         6.01312
   H       13.12648         2.64807         4.43328
   H       11.64624         1.74805         2.52553
   H       10.17259         2.55223         0.59449
   H       10.74476         6.45637         0.58123
   H        5.39797         4.85557        -2.38207
   H        5.15676         4.66226        -4.13733
   H        5.19457         6.29088        -3.41843
   H        9.27435        10.54386        -0.42111
   H       10.70039        10.41755        -1.48780
   H       10.90050        10.36038         0.28325
   H        6.50104         7.62573        -4.88386
   H        7.22743        11.47519        -5.09490
   H        5.68289        12.25576        -6.98558
   H        3.64644        11.47436        -8.35790
   H        1.77599        10.13676        -9.32961
   H        0.01420         8.30543        -9.79229
   H       -0.65723         5.87726        -8.98780
   H        1.31977         4.88767        -6.85451
   H       -3.80847         1.34862        -8.78285
   H       -0.98305        -0.29400        -5.62057
*
