# ORCA input file
# SCF done       -150.820449923486          0.000707524947
! CAM-B3LYP def2-SVP def2/J RIJCOSX Grid4 TightSCF
%maxcore 5000
%tddft
    Mode sTDDFT
    Ethresh 5.0
    maxcore 5000
end

%pal
  nprocs 6
  end
* xyz 0 1
   C       -3.08154         0.53529        -1.06985
   C       -3.39760         0.37969         0.23832
   C       -2.84506        -0.78191         0.87442
   C       -2.07284        -1.57277         0.06533
  Si       -1.98396        -0.85398        -1.67707
   C       -1.43252        -2.75755         0.45197
   C       -0.66378        -3.51735        -0.43986
   C       -0.09569        -4.70623         0.13617
   N        0.64190        -5.53308        -0.61399
   C        0.82707        -5.19745        -1.87305
   C        1.63208        -6.12386        -2.70412
   O        2.07580        -7.17555        -2.27996
   C        1.85486        -5.68747        -4.09010
   C        1.34860        -4.56162        -4.60625
   C        0.50722        -3.62322        -3.84453
   O        0.04367        -2.61512        -4.34049
   C        0.27492        -3.99896        -2.43406
   N       -0.46472        -3.18512        -1.70864
   C       -0.42657        -4.84917         1.48945
   S       -1.43206        -3.52987         2.00998
   C       -0.02784        -5.90009         2.34692
   C        0.79033        -6.94107         1.98838
   C        1.00750        -7.86209         3.03318
   C        1.78800        -9.03837         3.03768
   C        1.85571        -9.72077         4.26101
   C        1.13848        -9.20656         5.37282
   N        0.40331        -8.11469         5.37330
   C        0.34949        -7.46623         4.23013
   S       -0.55716        -6.00276         4.02308
   S        1.29983       -10.19301         6.79865
   C        2.30131       -11.30252         5.90314
   C        2.50429       -10.94287         4.61217
   F        3.23077       -11.67106         3.75553
   F        2.78512       -12.38234         6.50540
   C        2.47129        -9.42032         1.81827
   C        1.80731        -9.44933         0.62622
   C        2.59817        -9.65946        -0.54355
   C        3.94766        -9.79525        -0.34242
  Si        4.30639        -9.66963         1.49471
   C        4.89406        -9.89216        -1.39246
   C        4.74176       -10.33346        -2.67464
   C        5.74377        -9.93009        -3.69346
   O        6.82987        -9.43687        -3.49837
   C        5.10056       -10.21160        -4.99796
   C        3.87031       -10.85794        -4.78141
   C        3.69600       -11.07479        -3.34509
   C        2.85069       -11.99950        -2.79160
   C        2.85669       -12.34299        -1.42460
   N        2.84553       -12.67977        -0.32781
   C        1.92286       -12.75920        -3.53318
   N        1.14218       -13.38587        -4.09439
   C        3.06384       -11.18392        -5.85818
   C        3.50469       -10.86683        -7.13811
   C        4.73591       -10.24197        -7.34600
   C        5.54507        -9.90699        -6.26749
  Br        5.31798        -9.83295        -9.09816
  Br        2.39595       -11.29615        -8.60911
   H       -3.45448         1.38225        -1.62391
   H       -4.01956         1.06082         0.80043
   H       -3.03655        -1.00083         1.91575
   H       -2.66743        -1.68003        -2.66182
   H       -0.65455        -0.37361        -2.02350
   H        2.46532        -6.35224        -4.68697
   H        1.53384        -4.28249        -5.63467
   H        1.21873        -7.01031         1.00547
   H        0.73639        -9.33759         0.54346
   H        2.14111        -9.59886        -1.51858
   H        5.02295        -8.43239         1.82464
   H        4.93593       -10.85787         2.04429
   H        5.87944        -9.48795        -1.17854
   H        2.10610       -11.66310        -5.73285
   H        6.49614        -9.41993        -6.41737
*
