# ORCA input file
# SCF done       -184.460075479722          0.000707562311
! CAM-B3LYP def2-SVP def2/J RIJCOSX Grid4 TightSCF
%maxcore 5000
%tddft
    Mode sTDDFT
    Ethresh 5.0
    maxcore 5000
end

%pal
  nprocs 6
  end
* xyz 0 1
   C        1.27537        -2.46063        -0.11535
   F        2.24280        -2.13876        -0.97772
   C        1.21268        -1.83094         1.12425
   F        2.10656        -0.89785         1.45614
   C        0.20344        -2.19138         2.01188
   F        0.11966        -1.59509         3.20334
   C       -0.72246        -3.16186         1.65687
   F       -1.69472        -3.44416         2.53338
   C       -0.69153        -3.81449         0.41523
   C        0.34318        -3.43149        -0.45240
   F        0.47904        -4.03361        -1.64141
   C       -1.66289        -4.83391         0.04524
   C       -2.15564        -4.94691        -1.22638
   C       -3.06748        -5.91902        -1.64739
   C       -3.48267        -6.99804        -0.73452
   C       -3.13398        -7.06586         0.56777
   S       -2.13821        -5.91541         1.35522
   C       -4.28514        -7.86833        -1.51765
   C       -4.37480        -7.37342        -2.81922
   C       -5.16944        -8.19566        -3.64877
   C       -5.64919        -9.27059        -2.97130
   S       -5.16501        -9.33038        -1.30841
   C       -3.64130        -6.13863        -2.90905
   C       -3.58995        -5.37080        -4.10395
   C       -3.29570        -4.05596        -4.23020
   C       -3.27835        -3.36594        -5.47216
   C       -3.05682        -2.03300        -5.67659
   C       -3.11021        -1.63555        -7.03171
   C       -3.37717        -2.71826        -7.91019
   S       -3.56037        -4.20072        -6.98942
   C       -3.46144        -2.53030        -9.27903
   O       -3.69719        -3.44373       -10.25656
   C       -3.89350        -4.79802        -9.93137
   C       -3.28394        -1.21012        -9.74443
   C       -3.03210        -0.12577        -8.86598
   C       -2.93058        -0.31669        -7.49803
   O       -2.68424         0.60024        -6.52451
   C       -2.41636         1.93798        -6.86820
   S       -2.90092         1.36187        -9.78661
   C       -3.16846         0.52082       -11.30085
   C       -3.34848        -0.81778       -11.10144
   C       -3.18826         1.25415       -12.53054
   C       -3.19409         0.64909       -13.75866
   C       -3.23575         1.32669       -14.98095
   C       -3.28634         2.79296       -15.03427
   C       -3.27146         3.59270       -13.94678
   S       -3.20851         3.00533       -12.33646
   C       -3.33399         3.11008       -16.41729
   C       -3.30572         1.93956       -17.17999
   C       -3.36201         2.22701       -18.56399
   C       -3.42539         3.56244       -18.80474
   S       -3.42061         4.53598       -17.37456
   C       -3.23564         0.80943       -16.28513
   C       -3.15853        -0.57849       -16.58334
   C       -3.07823        -1.12851       -17.81358
   C       -2.96417        -2.54185       -18.09705
   C       -2.87772        -2.95828       -19.39987
   O       -2.74516        -4.24300       -19.78413
   C       -2.67063        -5.21888       -18.85270
   C       -2.50670        -6.53328       -19.29399
   C       -2.42505        -7.55176       -18.37156
   C       -2.50611        -7.27920       -17.00719
   C       -2.66977        -5.98473       -16.57362
   C       -2.75430        -4.93191       -17.48971
   C       -2.92883        -3.54742       -17.02140
   O       -3.03305        -3.30275       -15.82805
   C       -2.91768        -2.05407       -20.59524
   H       -1.81145        -4.23393        -1.95941
   H       -3.47350        -7.85584         1.21911
   H       -5.37606        -8.00770        -4.68676
   H       -6.27514       -10.05734        -3.34500
   H       -3.86976        -5.90634        -5.00414
   H       -3.09754        -3.44140        -3.36412
   H       -2.86142        -1.33486        -4.88348
   H       -4.77376        -4.93884        -9.29855
   H       -3.01774        -5.22786        -9.43816
   H       -4.05178        -5.29992       -10.88502
   H       -2.21242         2.44180        -5.92418
   H       -3.27417         2.41289        -7.35170
   H       -1.54104         2.02114        -7.51767
   H       -3.54022        -1.52908       -11.88225
   H       -3.15912        -0.43026       -13.77520
   H       -3.29768         4.66901       -14.01354
   H       -3.36295         1.50119       -19.35642
   H       -3.47693         4.05587       -19.75584
   H       -3.14847        -1.23650       -15.72937
   H       -3.07797        -0.47908       -18.67393
   H       -2.44562        -6.72276       -20.35414
   H       -2.29656        -8.56894       -18.70956
   H       -2.43971        -8.08702       -16.29454
   H       -2.73614        -5.74029       -15.52427
   H       -2.08198        -1.35631       -20.58243
   H       -3.84577        -1.48601       -20.62211
   H       -2.85182        -2.66297       -21.49344
*
