# ORCA input file
# SCF done       -228.524216008125          0.000886925717
! CAM-B3LYP def2-SVP def2/J RIJCOSX Grid4 TightSCF
%maxcore 5000
%tddft
    Mode sTDDFT
    Ethresh 5.0
    maxcore 5000
end

%pal
  nprocs 6
  end
* xyz 0 1
   C       -0.21915         5.34399        -0.70811
   C        0.75526         5.80882        -1.55387
   C        0.89810         7.16040        -1.92417
   N        1.07252         8.25032        -2.23957
   C        1.64886         4.95721        -2.23564
   N        2.34829         4.28678        -2.85199
   C       -1.37771         6.11638        -0.25615
   C       -2.39914         5.22014         0.11062
   C       -3.63570         5.66369         0.53444
   C       -3.85655         7.03516         0.59713
   C       -2.84139         7.93074         0.24669
   C       -1.59403         7.47974        -0.18570
   C       -3.15064         9.38455         0.31416
   O       -4.27243         9.82502         0.38096
   O       -2.05571        10.14184         0.28345
   C       -2.26720        11.54616         0.33149
   C       -5.16654         7.56349         1.11439
   O       -5.35176         7.86275         2.26318
   O       -6.09106         7.56641         0.15954
   C       -7.35263         8.11324         0.52323
   C       -1.90360         3.82846        -0.02300
   O       -2.51919         2.80246         0.15712
   C       -0.46921         3.96366        -0.37107
   C        0.35697         2.88083        -0.25019
   C        1.75248         2.82126        -0.09648
   C        2.52881         1.67152        -0.21795
   C        3.87336         1.87399         0.02800
   C        4.14547         3.19677         0.38747
   S        2.74012         4.18285         0.39873
   C        5.48542         3.53531         0.67684
   C        6.44412         2.52947         0.57258
  Ge        5.56201         0.85998         0.00280
   C        5.63999        -0.58629         1.35883
   C        6.08467         0.28907        -1.82095
   C        7.72116         2.99126         0.86439
   C        7.75196         4.33762         1.18955
   S        6.16105         5.05568         1.13683
   C        8.87116         5.08547         1.50469
   C        9.87686         5.71991         1.75748
   C       11.04268         6.41710         2.01667
   S       11.03739         8.14111         2.27595
   C       12.77268         8.13982         2.45678
   C       13.29212         6.86562         2.32896
   C       12.32184         5.89878         2.08304
   C       13.48235         9.30644         2.67721
   C       14.11633        10.32963         2.84845
   C       14.88326        11.47282         3.01740
   C       16.23750        11.44784         2.98487
   C       17.08088        12.57885         3.12457
   C       18.46511        12.58122         3.03792
   C       19.03237        13.83862         3.19293
   C       18.06908        14.82307         3.40752
   S       16.46557        14.18729         3.41319
   C       18.51305        16.15239         3.56855
   C       19.88997        16.38788         3.50919
  Ge       20.81415        14.68307         3.16388
   C       21.99258        14.10670         4.65258
   C       21.67736        14.62869         1.38140
   C       20.19404        17.72288         3.69112
   C       19.07808        18.54091         3.85375
   S       17.60683        17.58714         3.83168
   C       19.11595        19.92282         4.10349
   C       18.11347        20.85298         4.08263
   C       16.79020        20.84364         3.50870
   C       16.40913        20.18812         2.36527
   C       15.11796        20.25610         1.80678
   N       14.07530        20.24944         1.32655
   C       17.31397        19.45664         1.56865
   N       18.03690        18.90637         0.86646
   C       16.02325        21.90150         4.16814
   C       16.90849        22.68525         4.93265
   C       18.27215        22.10972         4.85224
   O       19.28862        22.54047         5.34823
   C       16.47544        23.79101         5.63168
   C       15.12072        24.11664         5.57523
   C       14.23563        23.33621         4.82403
   C       14.67830        22.22727         4.11112
   C       12.79307        23.75334         4.72548
   O       12.39954        24.59611         3.96599
   O       12.02719        23.01845         5.52562
   C       10.65083        23.37656         5.55965
   C       14.56294        25.26657         6.33286
   O       13.39032        25.39660         6.58665
   O       15.50409        26.13224         6.71234
   C       15.04800        27.26668         7.43594
   H       -4.40538         4.95877         0.80827
   H       -0.83268         8.19665        -0.44655
   H       -1.28078        12.00090         0.30124
   H       -2.79076        11.81794         1.25024
   H       -2.86600        11.86762        -0.52293
   H       -8.00143         7.97980        -0.33832
   H       -7.23560         9.17239         0.75858
   H       -7.75412         7.59482         1.39636
   H       -0.15513         1.92532        -0.17780
   H        2.10254         0.72755        -0.51045
   H        5.34599        -0.20936         2.33339
   H        6.64837        -0.98260         1.42708
   H        4.97009        -1.39388         1.08016
   H        5.97879         1.11733        -2.51464
   H        5.44973        -0.52656        -2.15286
   H        7.11660        -0.04844        -1.83131
   H        8.61030         2.38558         0.84246
   H       14.34473         6.66178         2.41249
   H       12.52672         4.85134         1.95110
   H       14.35414        12.40567         3.16852
   H       16.74344        10.50369         2.82725
   H       19.03134        11.68322         2.86001
   H       21.46254        14.15959         5.59839
   H       22.86665        14.74836         4.70566
   H       22.32382        13.08506         4.49441
   H       20.99062        14.99369         0.62406
   H       21.96831        13.61290         1.13183
   H       22.56459        15.25432         1.37753
   H       21.19328        18.12263         3.68058
   H       20.07374        20.29912         4.45238
   H       17.16451        24.38578         6.21005
   H       13.97659        21.64163         3.53870
   H       10.16440        22.65194         6.20723
   H       10.22602        23.34656         4.55435
   H       10.54722        24.38573         5.96197
   H       15.92964        27.86594         7.64695
   H       14.56252        26.95487         8.36293
   H       14.33146        27.83267         6.83755
*
