# ORCA input file
# SCF done       -226.087169358215          0.000581314650
! CAM-B3LYP def2-SVP def2/J RIJCOSX Grid4 TightSCF
%maxcore 5000
%tddft
    Mode sTDDFT
    Ethresh 5.0
    maxcore 5000
end

%pal
  nprocs 6
  end
* xyz 0 1
   C       -0.16496         5.30501        -0.54043
   C        0.96147         6.02885        -0.83023
   C        1.18691         7.34730        -0.38505
   N        1.43010         8.41225        -0.03335
   C        1.97373         5.56764        -1.69826
   N        2.78727         5.24814        -2.44245
   C       -1.38040         5.84683         0.06760
   C       -2.46494         5.01672        -0.27418
   C       -3.75534         5.30989         0.12016
   C       -3.96803         6.45933         0.87287
   C       -2.89328         7.28220         1.22486
   C       -1.59083         6.98415         0.82556
   C       -3.19379         8.51448         2.00496
   O       -4.30026         8.98532         2.10417
   O       -2.10718         9.04089         2.56541
   C       -2.30603        10.23105         3.31667
   C       -5.34885         6.78581         1.37507
   O       -5.74749         6.46681         2.46247
   O       -6.06927         7.38130         0.43135
   C       -7.37470         7.79747         0.81478
   C       -1.97326         3.86256        -1.06338
   O       -2.62209         2.97814        -1.57055
   C       -0.49304         3.99325        -1.05311
   C        0.28137         2.93375        -1.42120
   C        1.63669         2.67029        -1.12887
   C        2.46174         1.79270        -1.82152
   C        3.74673         1.71319        -1.31155
   C        3.90343         2.50446        -0.17314
   S        2.47498         3.36441         0.24207
   C        5.16695         2.50092         0.45898
   C        6.17545         1.73451        -0.12131
  Ge        5.47415         0.85425        -1.74068
   C        5.43222        -1.12362        -1.59708
   C        6.27752         1.56390        -3.40275
   C        7.37638         1.83177         0.56533
   C        7.31173         2.65937         1.67485
   S        5.70194         3.33068         1.86550
   C        8.29189         2.96697         2.65571
   C        9.68537         2.87823         2.64451
   C       10.51692         2.57004         1.48768
   O       10.11369         2.38753         0.35530
   C       11.96793         2.52088         1.79511
   C       12.51997         2.83955         3.06386
   C       13.88852         2.72110         3.07348
   S       14.52640         2.21673         1.55975
   C       12.94316         2.16611         0.89254
   C       12.77132         1.74312        -0.53333
   F       11.97296         0.67762        -0.66424
   F       12.28808         2.71120        -1.31494
   F       13.95557         1.38789        -1.06628
   C       14.81976         2.97326         4.21815
   F       14.58335         2.17519         5.26338
   F       16.09449         2.74300         3.85115
   F       14.77927         4.23578         4.65199
   C       11.68070         3.24526         4.21265
   O       12.14426         3.54641         5.29520
   C       10.25996         3.23750         3.89985
   C        9.31716         3.61277         4.84922
   S        7.70865         3.52726         4.20485
   C        9.58493         3.99499         6.14400
   C        9.81525         4.31647         7.29521
   C       10.21984         4.63695         8.57308
   S       11.90746         4.53497         8.99062
   C       11.54398         5.02938        10.62149
   C       10.18828         5.26015        10.79993
   C        9.44473         5.03949         9.64866
   C       12.54220         5.14369        11.56975
   C       13.44048         5.22480        12.38673
   C       14.45107         5.31355        13.32893
   C       14.21826         5.62414        14.63011
   C       15.22130         5.71314        15.62593
   C       16.67048         5.51744        15.47459
   N       17.35360         5.65943        16.57013
   C       16.43658         5.95783        17.54010
   C       15.07919         5.99948        16.96795
   C       14.11779         6.30928        17.98654
   S       12.49008         6.46090        17.82988
   C       14.91104         6.45647        19.19151
   C       16.34710         6.23124        18.87607
   N       17.10272         6.36433        19.99829
   C       16.25482         6.64686        20.95228
   C       14.86872         6.71997        20.52113
   H       -4.57202         4.66038        -0.15456
   H       -0.78495         7.63776         1.11709
   H       -1.31839        10.55877         3.62968
   H       -2.93802        10.02822         4.18348
   H       -2.78825        10.99156         2.69966
   H       -7.29819         8.62688         1.52005
   H       -7.91225         6.97309         1.28776
   H       -7.87373         8.11370        -0.09763
   H       -0.24029         2.14801        -1.96050
   H        2.12492         1.26528        -2.69686
   H        4.97433        -1.42904        -0.66124
   H        6.44368        -1.51605        -1.63685
   H        4.86444        -1.54730        -2.41982
   H        6.14701         2.64092        -3.44582
   H        5.80616         1.11755        -4.27308
   H        7.33939         1.33821        -3.42442
   H        8.27153         1.31851         0.26915
   H        9.77562         5.57545        11.74140
   H        8.37851         5.16100         9.57861
   H       15.45309         5.11220        12.97234
   H       13.20406         5.81592        14.95595
   H       17.17758         5.27669        14.55624
   H       16.60183         6.80411        21.95888
   H       14.03014         6.93788        21.15260
*
