# ORCA input file
# SCF done       -180.224086514273          0.000475184445
! CAM-B3LYP def2-SVP def2/J RIJCOSX Grid4 TightSCF
%maxcore 5000
%tddft
    Mode sTDDFT
    Ethresh 5.0
    maxcore 5000
end

%pal
  nprocs 6
  end
* xyz 0 1
   C       -5.89770        -0.99209         2.21321
   O       -5.22974        -1.91280         2.62482
   C       -6.65577        -0.01494         3.01979
   C       -7.04126         1.06703         2.20875
   C       -7.79893         2.09392         2.75548
   C       -8.17473         2.01053         4.08803
   C       -7.78219         0.92975         4.86651
   C       -6.99719        -0.09248         4.35304
  Br       -8.35258         0.82950         6.67190
   C       -6.54903         0.84154         0.85093
   C       -6.60796         1.74115        -0.17889
   C       -7.14771         3.03997        -0.06179
   N       -7.56786         4.10706        -0.02374
   C       -6.10368         1.51337        -1.47682
   N       -5.71051         1.39151        -2.54843
   C       -6.00783        -0.50637         0.80982
   C       -5.63720        -1.22618        -0.28290
   C       -5.41988        -2.64059        -0.26398
   C       -4.52032        -3.28718        -1.09904
   C       -4.26398        -4.65678        -1.02945
   C       -4.90901        -5.52140        -0.15054
   C       -5.93124        -4.91414         0.64343
   C       -6.17522        -3.49608         0.58266
   N       -7.20416        -3.23967         1.36402
   O       -7.57217        -4.39859         1.89403
   N       -6.81901        -5.41689         1.47975
   C       -4.56809        -6.90442        -0.00221
   C       -5.18672        -7.69810         0.93670
   C       -4.84840        -9.01103         1.23507
   C       -3.90180        -9.75780         0.39968
   C       -3.18739        -9.19111        -0.59832
   S       -3.27355        -7.53000        -1.02096
   C       -3.94228       -11.09183         0.89073
   C       -4.82431       -11.16834         1.97482
   C       -4.88812       -12.47143         2.51697
   C       -4.07849       -13.33057         1.84591
   S       -3.20266       -12.60088         0.54052
   C       -5.37401        -9.86707         2.22850
   C       -6.24500        -9.53166         3.29671
   C       -6.40105        -8.26811         3.77232
   C       -7.32521        -7.82514         4.74888
   C       -8.22750        -8.50430         5.54513
   C       -8.97594        -7.65467         6.35718
  Cl      -10.16289        -8.22741         7.45462
   C       -8.69212        -6.30004         6.19574
   S       -7.43803        -6.10876         5.00840
   C       -9.28109        -5.19264         6.84678
   C       -9.08572        -3.83633         6.59139
  Cl       -8.06437        -3.27123         5.33815
   C       -9.79853        -2.98661         7.43131
   C      -10.59461        -3.66156         8.33851
   S      -10.40138        -5.38665         8.15571
   C      -11.37654        -3.07548         9.35809
   C      -12.33680        -3.64585        10.13825
   C      -12.67336        -3.03929        11.45338
   O      -12.39029        -1.93192        11.84324
   C      -13.36995        -4.11501        12.19825
   C      -13.56673        -5.22308        11.35319
   C      -13.07470        -4.88599        10.01992
   C      -13.48723        -5.47379         8.85350
   C      -14.27219        -6.64244         8.79843
   N      -14.89140        -7.60438         8.70522
   C      -13.24826        -4.91130         7.58152
   N      -13.12374        -4.45218         6.53718
   C      -14.17594        -6.36732        11.84506
   C      -14.58414        -6.38675        13.17003
   C      -14.39327        -5.27769        13.98426
   C      -13.78189        -4.12254        13.51488
  Br      -14.98066        -5.34799        15.78927
   H       -8.11440         2.94107         2.16876
   H       -8.78186         2.79004         4.52268
   H       -6.68027        -0.92752         4.95727
   H       -5.52021        -0.73763        -1.24137
   H       -3.94844        -2.69362        -1.79712
   H       -3.50352        -5.06105        -1.68137
   H       -6.01405        -7.24595         1.46009
   H       -2.48026        -9.74518        -1.19549
   H       -5.49828       -12.76094         3.35295
   H       -3.92959       -14.37580         2.03429
   H       -6.78475       -10.34828         3.75703
   H       -5.76835        -7.48317         3.38662
   H       -8.33986        -9.57207         5.55419
   H       -9.75647        -1.91452         7.36776
   H      -11.11102        -2.05519         9.61816
   H      -14.32532        -7.23730        11.22620
   H      -15.05516        -7.26965        13.57415
   H      -13.63179        -3.26064        14.14632
*
