# ORCA input file
# SCF done       -186.190711749195          0.000640905889
! CAM-B3LYP def2-SVP def2/J RIJCOSX Grid4 TightSCF
%maxcore 5000
%tddft
    Mode sTDDFT
    Ethresh 5.0
    maxcore 5000
end

%pal
  nprocs 6
  end
* xyz 0 1
   C       -5.66887        -8.07017        11.92628
   O       -5.79552        -9.21142        11.53490
   C       -5.70343        -7.65028        13.34543
   C       -5.47988        -6.26741        13.44234
   C       -5.48371        -5.65937        14.68995
   C       -5.70263        -6.44228        15.81314
   C       -5.91081        -7.81022        15.69331
   C       -5.91715        -8.43978        14.45646
  Br       -6.19583        -8.84286        17.26270
   C       -5.25980        -5.74070        12.09918
   C       -4.81856        -4.47623        11.81290
   C       -4.61895        -3.47522        12.78761
   N       -4.45065        -2.61852        13.53280
   C       -4.43124        -4.00292        10.53924
   N       -4.04744        -3.54438         9.55917
   C       -5.48031        -6.82373        11.15014
   C       -5.62607        -6.60375         9.80656
   C       -5.78360        -7.47374         8.69617
   C       -5.63226        -8.86007         8.64960
   C       -5.73740        -9.60534         7.47917
   C       -5.99596        -9.05155         6.22653
   C       -6.16886        -7.63633         6.22548
   C       -6.06803        -6.86610         7.43664
   N       -6.28610        -5.60749         7.11615
   O       -6.50281        -5.58086         5.80634
   N       -6.43610        -6.79309         5.24749
   C       -6.07594        -9.79265         5.01866
   N       -6.28131        -9.16269         3.81071
   C       -6.29170       -10.09970         2.83436
   C       -6.40556       -10.29616         1.46436
   C       -6.27989       -11.67862         1.25799
   N       -6.09779       -12.31201         2.46914
   C       -6.09327       -11.37193         3.44848
   C       -5.95677       -11.17950         4.81411
   C       -6.30494       -12.35666         0.01617
   C       -6.19684       -13.70165        -0.13451
   C       -6.17954       -14.37558        -1.37592
   S       -6.25607       -13.52303        -2.89194
   C       -6.09161       -15.75459        -1.57384
   C       -6.05038       -16.74035        -0.47928
   O       -6.01499       -16.45148         0.70874
   C       -6.06530       -18.10927        -0.96531
   C       -6.10368       -19.29062        -0.25679
   N       -6.11221       -20.32256        -1.13395
   C       -6.23161       -21.71462        -0.77897
   C       -7.69615       -22.14671        -0.74759
   C       -6.08763       -19.84251        -2.39820
   C       -6.05441       -18.46495        -2.34467
   C       -6.02923       -17.50511        -3.42933
   O       -5.99975       -17.82613        -4.60893
   C       -6.06282       -16.10959        -2.94716
   C       -6.13229       -15.00561        -3.79124
   C       -6.16741       -15.04331        -5.20376
   C       -6.53347       -14.02520        -6.02103
   C       -6.61538       -14.14661        -7.43166
   C       -6.72969       -15.26590        -8.20154
   C       -6.39224       -15.15870        -9.64803
   O       -6.26141       -14.14341       -10.29058
   C       -6.19619       -16.55237       -10.10335
   C       -6.52666       -17.43536        -9.05970
   C       -7.01727       -16.66229        -7.91948
   C       -7.80785       -17.17297        -6.92660
   C       -8.10910       -18.54284        -6.77584
   N       -8.39052       -19.64093        -6.59718
   C       -8.46607       -16.39651        -5.95163
   N       -9.05330       -15.81743        -5.15342
   C       -6.37243       -18.80198        -9.23945
   C       -5.90696       -19.26464       -10.46049
   C       -5.60652       -18.37630       -11.48559
   C       -5.74081       -17.00419       -11.32532
  Br       -4.98243       -19.06029       -13.14479
   H       -5.32755        -4.59965        14.80553
   H       -5.71029        -5.98567        16.79095
   H       -6.08041        -9.50166        14.35650
   H       -5.64322        -5.56308         9.50091
   H       -5.41954        -9.38598         9.56570
   H       -5.59743       -10.67243         7.54772
   H       -6.40328        -8.16282         3.73136
   H       -6.55813        -9.56556         0.69617
   H       -5.97632       -13.30342         2.58473
   H       -5.79572       -11.91808         5.57244
   H       -6.41048       -11.73130        -0.86073
   H       -6.11274       -14.35479         0.72245
   H       -6.12302       -19.44441         0.80394
   H       -5.77536       -21.86190         0.20316
   H       -5.68249       -22.30947        -1.51338
   H       -8.24858       -21.56134        -0.01644
   H       -7.76743       -23.19700        -0.48001
   H       -8.15422       -22.00243        -1.72302
   H       -6.09551       -20.48545        -3.25591
   H       -5.88391       -15.99589        -5.62941
   H       -6.73866       -13.05002        -5.59766
   H       -6.52292       -13.22563        -8.00008
   H       -6.59157       -19.50178        -8.44973
   H       -5.77614       -20.32410       -10.61929
   H       -5.50008       -16.31122       -12.11650
*
