# ORCA input file
# SCF done       -214.210670926424          0.000693753667
! CAM-B3LYP def2-SVP def2/J RIJCOSX Grid4 TightSCF
%maxcore 5000
%tddft
    Mode sTDDFT
    Ethresh 5.0
    maxcore 5000
end

%pal
  nprocs 6
  end
* xyz 0 1
   C        3.56309        -2.64083         0.47179
   O        2.88465        -3.38820         1.15278
   C        4.05307        -1.32964         0.93796
   C        4.78595        -0.70257        -0.07937
   C        5.33683         0.54872         0.15934
   C        5.14512         1.13849         1.40132
   C        4.41492         0.49265         2.38937
   C        3.85198        -0.75709         2.17585
  Br        4.17800         1.33576         4.07751
   C        4.79647        -1.58441        -1.24777
   C        5.39328        -1.26573        -2.44210
   C        6.08623        -0.05877        -2.67717
   N        6.66618         0.89621        -2.94179
   C        5.41810        -2.04305        -3.61962
   N        5.49510        -2.58437        -4.63065
   C        4.06271        -2.79455        -0.90784
   C        3.93876        -3.85346        -1.78503
   C        3.28682        -5.09758        -1.70053
   C        2.54309        -5.57174        -0.63630
   C        1.90953        -6.79595        -0.58814
   C        1.95138        -7.74735        -1.70006
   C        2.61849        -7.51036        -2.85454
   S        3.49718        -6.07492        -3.16999
   C        1.17684        -8.85366        -1.26467
   C        0.67902        -8.61935         0.02802
   C       -0.09015        -9.71218         0.49337
   C       -0.15735       -10.70956        -0.42418
   S        0.70412       -10.37896        -1.89148
   C        1.12909        -7.33310         0.46959
   C        0.90910        -6.64694         1.68356
   C        0.12027        -7.01398         2.72533
   C       -0.01236        -6.21475         3.89219
   C       -0.82828        -6.47246         4.96743
   C       -0.76418        -5.49886         5.99316
   C        0.16104        -4.47528         5.65033
   S        0.89485        -4.73204         4.09604
   C        0.48917        -3.37305         6.43058
   O        1.40112        -2.54763         5.86542
   C        1.82606        -1.36318         6.49958
   C       -0.15848        -3.26846         7.67970
   C       -1.09951        -4.28153         8.01185
   C       -1.42844        -5.37948         7.23166
   O       -2.36155        -6.19131         7.79752
   C       -2.83655        -7.34051         7.14495
   S       -1.83336        -4.02350         9.56642
   C       -0.87484        -2.57623         9.79344
   C       -0.05565        -2.31967         8.72355
   C       -0.97466        -1.80495        10.99079
   C       -1.87942        -2.09516        12.00119
   C       -1.95976        -1.37004        13.19133
   C       -1.10142        -0.32679        13.50419
   C       -0.20045         0.04984        12.47174
   C       -0.14410        -0.67097        11.22438
   N        0.73229        -0.05063        10.45910
   O        1.17819         0.98637        11.16660
   N        0.62914         1.06819        12.37141
   C       -1.16211         0.35407        14.76218
   C       -0.08779         0.84419        15.43630
   C       -0.10546         1.68730        16.61815
   C       -1.20067         2.28570        17.18047
   C       -1.16091         3.10641        18.32895
   N       -1.20839         3.77180        19.26277
   C       -2.52376         2.17025        16.70164
   N       -3.62282         2.12930        16.37244
   C        1.27463         1.83775        17.07520
   C        2.12212         1.11115        16.21939
   C        1.31948         0.43188        15.17949
   O        1.71670        -0.38770        14.38366
   C        3.48591         1.06062        16.41748
   C        4.02096         1.76240        17.49589
   C        3.18534         2.49444        18.34658
   C        1.81104         2.53915        18.14513
   C        3.79481         3.30579        19.45920
   O        4.27366         4.39460        19.29412
   O        3.65382         2.69247        20.62858
   C        4.24548         3.34606        21.74567
   C        5.47348         1.72620        17.81236
   O        5.92961         2.02546        18.88861
   O        6.21049         1.31334        16.78153
   C        7.61266         1.25635        17.00471
   H        5.90852         1.07335        -0.58764
   H        5.56951         2.11063         1.60056
   H        3.28027        -1.27257         2.93234
   H        4.44345        -3.71524        -2.73413
   H        2.46237        -4.91670         0.21784
   H        2.64193        -8.21932        -3.66767
   H       -0.56887        -9.77172         1.45322
   H       -0.66979       -11.64774        -0.33706
   H        1.43013        -5.70342         1.78565
   H       -0.45437        -7.92842         2.70104
   H       -1.44599        -7.35001         4.98651
   H        2.51679        -0.89307         5.80059
   H        2.35423        -1.57399         7.43274
   H        0.99035        -0.68414         6.68544
   H       -2.04041        -8.07608         6.99606
   H       -3.30981        -7.09462         6.18984
   H       -3.58586        -7.75932         7.81639
   H        0.58705        -1.46111         8.73677
   H       -2.54978        -2.93020        11.85958
   H       -2.69078        -1.67248        13.92705
   H       -2.15009         0.44708        15.19543
   H        4.11923         0.49044        15.75648
   H        1.19377         3.11070        18.81908
   H        3.94774         2.77785        22.62289
   H        3.89292         4.37715        21.81184
   H        5.33108         3.34495        21.63449
   H        8.05964         0.97386        16.05521
   H        7.84362         0.51654        17.77412
   H        7.98291         2.23002        17.33147
*
