# ORCA input file
# SCF done       -213.549676667127          0.000793929220
! CAM-B3LYP def2-SVP def2/J RIJCOSX Grid4 TightSCF
%maxcore 5000
%tddft
    Mode sTDDFT
    Ethresh 5.0
    maxcore 5000
end

%pal
  nprocs 6
  end
* xyz 0 1
   C        3.11644         0.70617        -0.45723
   C        3.34474         2.05752        -0.24341
   F        4.22359         2.69497        -1.02086
   C        2.68163         2.76234         0.76333
   F        2.92755         4.06487         0.92833
   C        1.77358         2.12392         1.59322
   C        1.55317         0.77622         1.38711
   C        2.20911         0.06187         0.36869
   C        1.72733        -1.32036         0.37522
   C        1.82988        -2.19734        -0.67287
   C        2.61868        -1.96807        -1.81913
   N        3.28908        -1.85727        -2.74384
   C        1.11881        -3.41219        -0.75214
   N        0.53969        -4.39354        -0.88591
   C        0.92302        -1.48949         1.56460
   C        0.66151        -0.13805         2.13590
   O       -0.08760         0.13306         3.04195
   C        0.45164        -2.58260         2.22601
   C        0.81139        -3.94772         2.12469
   S       -0.37769        -5.14526         2.58865
   C        0.70168        -6.42430         2.24972
   C        1.92117        -5.97539         1.83767
   C        1.99651        -4.56919         1.77041
   C        3.31847        -3.96854         1.43745
   C        4.43673        -4.64926         2.24442
   C        4.29909        -6.19388         2.37382
   O        4.09951        -6.42090         3.75554
   C        4.24980        -7.75198         4.19150
   C        3.14828        -6.75313         1.51677
   N        5.71139        -4.26697         1.68011
   C        6.89024        -4.54219         2.25546
   C        8.08603        -4.05668         1.82532
   C        9.31742        -4.33884         2.45320
   N       10.34900        -3.50418         2.33563
   C       11.29785        -3.95917         3.16557
   C       10.85357        -5.18407         3.85546
   C       11.90802        -5.70791         4.73789
   O       11.87424        -6.70887         5.42598
   C       12.98479        -4.72642         4.55406
   C       12.57714        -3.68083         3.59361
   N       13.58025        -2.79530         3.39898
   C       14.56759        -3.22161         4.15552
   C       14.26876        -4.42272         4.89324
   C        9.61325        -5.47140         3.36887
   C        8.88371        -6.68306         3.61297
   C        8.21786        -7.35566         2.65462
   C        7.58565        -8.63323         2.77017
   S        6.59802        -9.15273         1.42169
   C        6.18988       -10.60907         2.22669
   C        6.78283       -10.71407         3.44914
   C        7.59200        -9.59146         3.76370
   C        8.33427        -9.49889         5.05949
   C        8.45857       -10.86627         5.73146
   C        7.06690       -11.55627         5.78864
   O        6.10871       -10.72500         6.40199
   C        6.11960       -10.74060         7.80909
   C        6.59428       -11.87727         4.37039
   N        9.40798       -11.67506         5.01175
   C       10.13943       -12.64309         5.55599
   C       10.98517       -13.46104         4.85518
   C       11.79881       -14.45206         5.41457
   C       11.79671       -15.03840         6.66279
   C       13.04677       -15.68302         7.12393
   O       14.03601       -15.91993         6.46770
   C       12.84626       -15.94080         8.57142
   C       11.53305       -15.58799         8.92261
   C       11.10870       -15.70981        10.23482
   C       12.01780       -16.18427        11.16992
   C       13.31657       -16.54130        10.81173
   C       13.74669       -16.42304         9.49863
   F       14.15915       -17.00004        11.74642
   F       11.63291       -16.29502        12.44780
   C       10.82756       -15.14373         7.71565
   C        9.45512       -15.08561         7.60536
   C        8.77626       -14.90081         6.39138
   N        8.17121       -14.72996         5.42843
   C        8.55860       -15.22794         8.68057
   N        7.77001       -15.28367         9.51422
   H        3.65199         0.20619        -1.24789
   H        1.25909         2.66654         2.37019
   H       -0.29265        -2.35498         2.98450
   H        0.37527        -7.43936         2.36206
   H        3.33497        -2.89755         1.64633
   H        3.51443        -4.11788         0.36819
   H        4.37797        -4.28469         3.28007
   H        5.23743        -6.67327         2.05268
   H        4.18648        -7.72045         5.27671
   H        5.22292        -8.15711         3.89988
   H        3.46021        -8.40559         3.80970
   H        3.01358        -7.81560         1.71198
   H        3.40555        -6.62991         0.46227
   H        5.71219        -3.68763         0.85334
   H        6.83375        -5.16759         3.13517
   H        8.11950        -3.32860         1.02706
   H       15.49857        -2.68239         4.18403
   H       14.93872        -4.93324         5.55677
   H        9.01573        -7.09070         4.60194
   H        8.14902        -6.91138         1.66871
   H        5.53275       -11.31016         1.75239
   H        7.79263        -8.83071         5.73450
   H        9.33680        -9.09361         4.90319
   H        8.83501       -10.73566         6.75191
   H        7.15966       -12.49877         6.35003
   H        5.24226       -10.17962         8.12467
   H        7.01596       -10.26333         8.22080
   H        6.05442       -11.76436         8.19452
   H        5.53710       -12.14359         4.41188
   H        7.13974       -12.75326         4.01003
   H        9.37771       -11.60904         4.00341
   H       10.10469       -12.69352         6.63620
   H       11.08591       -13.28928         3.79223
   H       12.62944       -14.78002         4.79628
   H       10.11608       -15.44528        10.56115
   H       14.75085       -16.69925         9.21944
*
