# ORCA input file
# SCF done       -191.266073131266          0.000795084648
! CAM-B3LYP def2-SVP def2/J RIJCOSX Grid4 TightSCF
%maxcore 5000
%tddft
    Mode sTDDFT
    Ethresh 5.0
    maxcore 5000
end

%pal
  nprocs 6
  end
* xyz 0 1
   C       -7.99316         0.30118        -3.23730
   C       -8.47007         1.52441        -2.80116
   C       -9.72134         1.95211        -3.25460
   C      -10.22722         3.20160        -2.82036
   N      -10.63094         4.21287        -2.46578
   C      -10.48765         1.16529        -4.13374
   C      -11.75120         1.62249        -4.57615
   N      -12.77682         1.97217        -4.94765
   C      -10.00113        -0.06926        -4.57099
   C       -8.76686        -0.47799        -4.11754
   C       -8.03782        -1.73159        -4.43306
   O       -8.43212        -2.61935        -5.16362
   C       -6.77711        -1.65251        -3.67862
   C       -6.74588        -0.41664        -2.95020
   C       -5.74726         0.04660        -2.12159
   C       -5.79253         1.27908        -1.44093
   N       -5.76724         2.26960        -0.86002
   C       -4.54525        -0.62703        -1.82848
   N       -3.54260        -1.10577        -1.53411
   C       -5.79493        -2.63475        -3.68819
   C       -5.86152        -3.81382        -4.40788
   C       -4.85984        -4.77921        -4.37831
   C       -4.84871        -6.00254        -5.06577
   C       -3.72959        -6.76416        -4.82914
   C       -2.82268        -6.16295        -3.94791
   S       -3.40448        -4.60911        -3.42380
   C       -1.60478        -6.68045        -3.48211
   C       -1.02596        -7.91692        -3.77415
   C        0.16706        -8.13238        -3.11623
   C        0.55968        -7.07340        -2.29710
   S       -0.60825        -5.78163        -2.37246
   C        1.70269        -7.01550        -1.48307
   C        2.04762        -5.94291        -0.71243
   C        3.15167        -5.89638         0.15424
   C        3.53988        -4.82162         0.95090
   C        4.64215        -5.08120         1.74183
   C        5.14483        -6.37096         1.58603
   S        4.21751        -7.25428         0.40782
   C        6.21935        -6.96286         2.27677
   C        7.00107        -6.39403         3.28051
   C        7.94615        -7.25635         3.80010
   C        7.93268        -8.51991         3.21184
   S        6.70364        -8.60741         1.97627
   C        8.75522        -9.60502         3.55161
   C        8.74850       -10.83035         2.94803
   C        9.56860       -11.89935         3.34588
   C        9.67940       -13.16092         2.76118
   C       10.58297       -13.99607         3.38992
   C       11.19787       -13.41159         4.49566
   S       10.62533       -11.78020         4.72658
   C       12.16627       -13.92313         5.37167
   C       12.89088       -15.11736         5.35271
   C       13.82477       -15.20395         6.36125
   C       13.88052       -14.07986         7.20258
   S       12.67819       -12.92556         6.69974
   C       14.68034       -13.92890         8.33936
   C       14.74828       -12.84694         9.19940
   C       14.28736       -11.54187         9.01926
   C       13.77779       -10.76784        10.16775
   O       13.90095       -11.01125        11.34737
   C       12.99628        -9.65238         9.55757
   C       12.12859        -8.76431        10.15267
   C       11.38014        -7.91869         9.32549
   C       11.52779        -7.98229         7.92797
   C       12.45451        -8.84771         7.33825
   C       13.18472        -9.67930         8.16317
   C       14.11943       -10.75682         7.84092
   C       14.79088       -10.89175         6.64308
   C       15.75555       -11.88950         6.41708
   N       16.54459       -12.69487         6.19882
   C       14.60350       -10.03756         5.54326
   N       14.45530        -9.37865         4.61352
   C       10.69215        -7.21651         7.08412
   N       10.00185        -6.64897         6.36618
   C       10.44681        -7.01727         9.88780
   N        9.69095        -6.28849        10.34654
   H       -7.91421         2.15641        -2.12732
   H      -10.57536        -0.68543        -5.24615
   H       -4.90729        -2.47279        -3.08952
   H       -6.72801        -4.01092        -5.02279
   H       -5.65763        -6.29533        -5.71082
   H       -3.55404        -7.72924        -5.26868
   H       -1.47987        -8.62547        -4.44259
   H        0.75407        -9.02859        -3.21127
   H        2.33236        -7.89653        -1.47245
   H        1.42954        -5.05420        -0.74458
   H        3.01305        -3.88420         0.94096
   H        5.07498        -4.36858         2.41955
   H        6.86750        -5.38274         3.61764
   H        8.63142        -6.99613         4.58825
   H        9.44424        -9.42900         4.36894
   H        8.08394       -11.00900         2.11215
   H        9.10870       -13.43873         1.89276
   H       10.79834       -15.00081         3.07418
   H       12.73496       -15.87661         4.60783
   H       14.48511       -16.04138         6.49865
   H       15.23361       -14.81496         8.62289
   H       15.12122       -13.05000        10.19823
   H       12.00442        -8.73786        11.22459
   H       12.55027        -8.87552         6.26442
*
