# ORCA input file
# SCF done       -179.818696759036          0.000834183485
! CAM-B3LYP def2-SVP def2/J RIJCOSX Grid4 TightSCF
%maxcore 5000
%tddft
    Mode sTDDFT
    Ethresh 5.0
    maxcore 5000
end

%pal
  nprocs 6
  end
* xyz 0 1
   C       -0.23207         4.77625        -0.94690
   C        0.75664         5.26579        -1.76103
   C        0.91017         6.62763        -2.08817
   N        1.10154         7.72544        -2.36315
   C        1.66906         4.43367        -2.44243
   N        2.38355         3.77823        -3.05731
   C       -1.41183         5.52562        -0.51278
   C       -2.43057         4.60890        -0.18991
   C       -3.68321         5.02928         0.20303
   C       -3.91933         6.40034         0.29077
   C       -2.90611         7.31499        -0.01540
   C       -1.64811         6.88765        -0.42545
   C       -3.21287         8.78781         0.02921
   O       -3.77648         9.37238        -0.85537
   O       -2.71516         9.34458         1.12821
   C       -3.00803        10.72536         1.30919
   C       -5.22556         6.94000         0.75178
   O       -5.36941         8.05247         1.19630
   O       -6.21523         6.05585         0.62648
   C       -7.50147         6.50198         1.03444
   C       -1.91172         3.22733        -0.32394
   O       -2.51319         2.18995        -0.16481
   C       -0.46924         3.38698        -0.63399
   C        0.36611         2.31541        -0.49242
   C        1.75945         2.26292        -0.30751
   C        2.53670         1.11061        -0.38869
   C        3.87671         1.31708        -0.11786
   C        4.14165         2.64709         0.21605
   S        2.73688         3.63294         0.18123
   C        5.47731         2.99423         0.51882
   C        6.43730         1.98643         0.46028
  Ge        5.56514         0.30083        -0.07987
   C        5.61874        -1.10119         1.32244
   C        6.12359        -0.32467        -1.87455
   C        7.70903         2.45776         0.76216
   C        7.73322         3.81328         1.04495
   S        6.14276         4.52815         0.94246
   C        8.84156         4.57856         1.35735
   C        9.83128         5.23564         1.61414
   C       10.96641         5.97860         1.88394
   S       10.92040         7.71942         1.89793
   C       12.63020         7.78110         2.24675
   C       13.17067         6.51299         2.34804
   C       12.23777         5.50140         2.14291
   C       13.29188         8.98825         2.36655
   C       13.86731        10.05641         2.44908
   C       14.56498        11.25094         2.53062
   C       13.97746        12.46185         2.37488
   C       14.67456        13.69992         2.43162
   S       13.79266        15.19354         2.26355
   C       15.23578        16.14700         2.42276
   C       16.33819        15.31420         2.57771
   C       16.02096        13.95061         2.59044
   N       17.71064        15.74046         2.54486
   O       17.95610        16.78488         1.98462
   O       18.52436        14.97902         3.00939
   C       15.16642        17.56592         2.48766
   C       15.96470        18.45119         3.17425
   C       15.46230        19.78135         2.95279
   C       14.28780        19.67776         2.08623
   O       13.53931        20.50025         1.62740
   N       14.16891        18.29645         1.87755
   C       16.25173        20.61515         3.67062
   O       17.19822        19.93715         4.34490
   C       17.06942        18.56099         4.09763
   O       17.75846        17.74467         4.64131
   H       -4.45724         4.31709         0.44145
   H       -0.88378         7.61200        -0.65799
   H       -2.43624        11.04644         2.17550
   H       -4.07766        10.84923         1.48492
   H       -2.72255        11.29286         0.42167
   H       -8.19143         5.69728         0.79514
   H       -7.77116         7.41442         0.49931
   H       -7.50761         6.70832         2.10674
   H       -0.13941         1.35559        -0.42840
   H        2.11597         0.16061        -0.66933
   H        5.29930        -0.69656         2.27770
   H        6.62794        -1.48758         1.42650
   H        4.96136        -1.92212         1.05328
   H        6.02686         0.47985        -2.59684
   H        5.49868        -1.15409        -2.19093
   H        7.15696        -0.65727        -1.85495
   H        8.59871         1.85263         0.77402
   H       14.21141         6.34568         2.56071
   H       12.46268         4.45047         2.17664
   H       15.62671        11.17071         2.72248
   H       12.91254        12.51417         2.19438
   H       16.77657        13.19358         2.69247
   H       13.45529        17.89648         1.28680
   H       16.24670        21.68296         3.79053
*
