# ORCA input file
# SCF done       -295.398926016201          0.000431515119
! CAM-B3LYP def2-SVP def2/J RIJCOSX Grid4 TightSCF
%maxcore 5000
%tddft
    Mode sTDDFT
    Ethresh 5.0
    maxcore 5000
end

%pal
  nprocs 6
  end
* xyz 0 1
   C        2.75106         2.23487         5.43349
   C        3.85178         1.74961         6.07430
   C        3.80704         0.80350         7.12727
   N        3.86152         0.05199         7.99151
   C        5.17929         2.17071         5.88871
   N        6.27993         2.49029         5.83969
   C        1.38050         1.88600         5.81731
   C        0.48263         2.81492         5.26093
   C       -0.87969         2.74428         5.48428
   C       -1.36099         1.71587         6.28442
   C       -0.47827         0.77151         6.82013
   C        0.89389         0.84503         6.59018
   C       -1.05375        -0.30710         7.67445
   O       -2.17048        -0.26781         8.12879
   O       -0.19695        -1.30118         7.88406
   C       -0.66455        -2.37161         8.69445
   C       -2.84307         1.56014         6.50570
   O       -3.54290         0.87860         5.80781
   O       -3.26084         2.33458         7.50018
   C       -4.63645         2.21006         7.84306
   C        1.22301         3.74284         4.39333
   O        0.79848         4.66479         3.74343
   C        2.64344         3.23700         4.37784
   C        3.33796         3.58996         3.27777
   C        4.60161         3.21368         2.64323
   C        5.86809         3.59750         3.26047
   C        5.96671         4.76080         4.03301
   C        7.13652         5.13745         4.67795
   C        8.28048         4.35553         4.55121
   C        8.22257         3.20096         3.77583
   C        7.03593         2.82907         3.16104
   F        7.03268         1.68855         2.46435
   F        9.30760         2.44288         3.62139
   F        9.41200         4.71230         5.14745
   F        7.16446         6.26060         5.39417
   F        4.90245         5.57724         4.12244
   C        4.52938         2.65276         1.38399
   C        3.28145         1.97700         0.98233
   C        2.72112         2.11428        -0.29215
   C        1.52423         1.49818        -0.64196
   C        0.84605         0.70665         0.28005
   C        1.40601         0.51167         1.53861
   C        2.60972         1.12327         1.86457
   F        3.14423         0.82429         3.05198
   F        0.79763        -0.26771         2.43394
   F       -0.30457         0.12709        -0.04599
   F        1.02960         1.66364        -1.86805
   F        3.33000         2.84323        -1.22783
   C        5.60474         2.71270         0.42674
   C        5.75958         1.58345        -0.49799
   C        5.57707         0.25910        -0.08268
   C        5.70100        -0.81713        -0.95395
   C        6.01489        -0.60006        -2.29062
   C        6.17311         0.70832        -2.74115
   C        6.02803         1.77097        -1.86252
   F        6.14462         3.00361        -2.36071
   F        6.46291         0.93963        -4.02357
   F        6.15687        -1.62561        -3.12962
   F        5.52432        -2.06049        -0.50265
   F        5.28728        -0.01241         1.19410
   C        6.44511         3.81907         0.34052
   C        6.06833         5.14749         0.85501
   C        7.01341         5.95878         1.49249
   C        6.73692         7.25679         1.90187
   C        5.47062         7.79324         1.69182
   C        4.49900         7.00468         1.08187
   C        4.80127         5.71019         0.67481
   F        3.83064         5.00701         0.09090
   F        3.27883         7.49319         0.87433
   F        5.19287         9.03600         2.06867
   F        7.68313         7.97716         2.50099
   F        8.23016         5.46537         1.77303
   C        7.70642         3.71651        -0.30345
   S        8.39924         5.06600        -1.19649
   C        9.70573         4.08061        -1.68751
   C        9.62640         2.77701        -1.16553
   C        8.50414         2.57454        -0.39583
   C       10.79934         1.94473        -1.62238
   C       11.65275         1.48531        -0.43697
   C       10.32902         0.74663        -2.45346
   C       11.53418         2.95317        -2.47376
   C       10.86288         4.18505        -2.47575
   S       11.66507         5.36135        -3.43393
   C       12.91360         4.19937        -3.84105
   C       12.68353         2.96282        -3.23979
   C       13.96811         4.60694        -4.68848
   C       15.00178         3.81237        -5.07674
   C       16.05801         4.21413        -5.92522
   C       16.29290         5.43148        -6.54939
   C       17.44997         5.45068        -7.31550
   C       18.12232         4.23082        -7.28430
   S       17.32231         3.06432        -6.31128
   C       19.32555         4.12341        -8.02796
   C       19.75234         5.23568        -8.73536
  Ge       18.46160         6.69835        -8.46202
   C       17.48197         7.21414       -10.10787
   C       19.20406         8.24613        -7.46836
   C       20.95166         4.98672        -9.42037
   C       21.41287         3.71836        -9.23026
   S       20.39624         2.78110        -8.20719
   H       -1.54353         3.47001         5.04051
   H        1.53423         0.08615         7.00694
   H        0.16970        -3.06074         8.79339
   H       -1.51569        -2.86136         8.21747
   H       -0.97517        -1.99793         9.67199
   H       -4.82132         1.21187         8.24333
   H       -5.26282         2.36452         6.96230
   H       -4.83184         2.96910         8.59571
   H        2.76184         4.27076         2.64591
   H        8.27437         1.66681         0.13145
   H       11.07311         0.83084         0.20857
   H       11.98385         2.34158         0.14572
   H       12.52625         0.94544        -0.79331
   H        9.75099         0.06707        -1.83177
   H       11.18523         0.21070        -2.85449
   H        9.70768         1.07908        -3.28232
   H       13.33872         2.12175        -3.36985
   H       13.92510         5.62875        -5.03736
   H       15.04594         2.79164        -4.72387
   H       15.63550         6.27644        -6.44585
   H       17.09393         6.33253       -10.60823
   H       18.14443         7.73861       -10.78942
   H       16.65210         7.86890        -9.86073
   H       19.72143         7.90921        -6.57567
   H       18.40541         8.92049        -7.17540
   H       19.90484         8.79165        -8.09259
   H       21.45657         5.71481       -10.03079
   H       22.29885         3.26746        -9.63298
*
