# ORCA input file
# SCF done       -198.835573781027          0.000607426383
! CAM-B3LYP def2-SVP def2/J RIJCOSX Grid4 TightSCF
%maxcore 5000
%tddft
    Mode sTDDFT
    Ethresh 5.0
    maxcore 5000
end

%pal
  nprocs 6
  end
* xyz 0 1
   C        3.06803         1.01491        -9.66466
   C        4.20078         0.87822        -8.94474
   C        3.95722         0.57522        -7.57353
   C        4.89582         0.41239        -6.53576
   C        6.32025         0.41481        -6.80667
   C        6.97558        -0.17147        -7.85126
   C        8.37244         0.02572        -7.79877
   C        8.79866         0.75997        -6.73123
   S        7.44710         1.21566        -5.74827
   C       10.18592         1.14444        -6.36406
  Cl        9.43974        -0.61042        -8.99322
   C        4.39017         0.23526        -5.25392
   C        3.00079         0.17368        -4.97648
   C        2.05568         0.31210        -6.01590
   C        2.57176         0.50747        -7.29434
   S        1.62933         0.78252        -8.73741
   C        0.62831         0.28096        -5.78213
   C       -0.33905        -0.26154        -6.58141
   C       -1.63971        -0.06578        -6.07305
   C       -1.69018         0.63022        -4.89957
   S       -0.09140         1.05167        -4.39297
   C       -2.88093         1.02362        -4.10406
  Cl       -3.04173        -0.66377        -6.87426
   C        2.75761        -0.07655        -3.61020
   C        3.89840        -0.17710        -2.85507
   S        5.34726         0.01661        -3.80749
   C        3.97648        -0.39663        -1.45096
   C        5.23277        -0.44293        -0.80707
   C        5.38263        -0.63757         0.59919
   N        6.62466        -0.67649         1.12923
   C        7.66526        -0.51854         0.35841
   C        7.51598        -0.31512        -1.05007
   N        6.32504        -0.28902        -1.57798
   C        8.68239        -0.13076        -1.95775
   C        9.01093        -0.55824         0.99932
   C        4.25962        -0.82770         1.43513
   C        3.00074        -0.76349         0.80541
   C        2.85104        -0.54958        -0.61675
   N        1.56532        -0.49320        -0.97394
   S        0.65132        -0.66521         0.33557
   N        1.81709        -0.82554         1.42169
   C        4.37239        -1.04046         2.84253
   C        5.40641        -0.46377         3.71098
   N        5.23957        -0.70408         4.97693
   C        4.11011        -1.46791         5.05871
   C        3.54150        -1.70140         3.71971
   C        2.41038        -2.58277         3.82478
   S        1.68802        -3.36480         2.56722
   C        2.20320        -2.75822         5.24527
   C        3.30161        -2.08525         5.96998
   N        3.17576        -2.26385         7.31734
   C        2.10529        -2.98373         7.46849
   C        1.42284        -3.34494         6.21793
   C        0.19114        -4.08560         6.14128
   C       -0.29379        -4.80365         7.24630
   C       -1.48485        -5.49710         7.18503
   C       -2.21237        -5.48400         6.00159
   C       -1.72992        -4.77953         4.88499
   C       -0.55230        -4.08144         4.95063
   C       -2.66633        -4.92912         3.70935
   C       -3.19792        -3.57166         3.24161
   C       -1.96690        -5.65415         2.55431
   C       -3.76301        -5.78146         4.30674
   C       -4.91455        -6.24075         3.71464
   C       -5.80191        -7.01588         4.46731
   C       -5.51522        -7.31979         5.80014
   C       -4.35479        -6.86734         6.39635
   C       -3.47618        -6.09585         5.64754
   C       -7.03696        -7.50826         3.85569
   N       -7.90174        -8.15435         4.64114
   C       -9.01345        -8.59123         4.08059
   C       -9.29390        -8.40440         2.73736
   C       -8.33002        -7.72173         1.98743
   N       -7.21383        -7.27953         2.55980
   C       -8.51763        -7.47746         0.56138
   C       -7.61090        -6.87480        -0.19690
   H        2.97420         1.24200       -10.70866
   H        5.18325         1.01569        -9.35625
   H        6.49419        -0.76005        -8.61011
   H       10.59033         0.45463        -5.62188
   H       10.20519         2.14646        -5.94131
   H       10.82306         1.11247        -7.24507
   H       -0.13987        -0.81457        -7.48021
   H       -3.13471         2.06901        -4.28520
   H       -2.68688         0.90251        -3.04019
   H       -3.73207         0.40895        -4.38828
   H        1.78523        -0.19307        -3.17067
   H        9.32764        -1.00758        -1.92723
   H        9.27126         0.73098        -1.64749
   H        8.32254         0.02221        -2.97131
   H        8.89935        -0.73191         2.06574
   H        9.53466         0.38309         0.83832
   H        9.61305        -1.35532         0.56598
   H        6.22629         0.13617         3.36109
   H        1.77335        -3.24416         8.45813
   H        0.28068        -4.83058         8.15935
   H       -1.84258        -6.04308         8.04530
   H       -0.19169        -3.52782         4.09986
   H       -2.38032        -2.95914         2.86907
   H       -3.67912        -3.04953         4.06608
   H       -3.92491        -3.70694         2.44463
   H       -1.11795        -5.07140         2.20498
   H       -2.65845        -5.80109         1.72838
   H       -1.60710        -6.62662         2.88346
   H       -5.15895        -6.01766         2.68827
   H       -6.22400        -7.91789         6.35089
   H       -4.13665        -7.10741         7.42637
   H       -9.70179        -9.10787         4.73906
   H      -10.20555        -8.76675         2.29020
   H       -9.45461        -7.82726         0.14827
   H       -6.68271        -6.53736         0.23124
   H       -7.76428        -6.70551        -1.24884
*
