# ORCA input file
# SCF done       -155.479613186161          0.000898465617
! CAM-B3LYP def2-SVP def2/J RIJCOSX Grid4 TightSCF
%maxcore 5000
%tddft
    Mode sTDDFT
    Ethresh 5.0
    maxcore 5000
end

%pal
  nprocs 6
  end
* xyz 0 1
   C       -4.56417        -1.28787        -1.61994
   O       -4.68563        -2.49216        -1.55872
   C       -5.26647        -0.35915        -2.52606
   C       -4.81448         0.95539        -2.29996
   C       -5.34048         1.99724        -3.05320
   C       -6.29849         1.71272        -4.01372
   C       -6.72808         0.40768        -4.22174
   C       -6.21995        -0.65074        -3.48060
  Br       -8.03654         0.06428        -5.55344
   C       -3.80888         0.94534        -1.24273
   C       -3.15800         2.03522        -0.73705
   C       -3.36548         3.36000        -1.17972
   N       -3.49394         4.45442        -1.49893
   C       -2.19113         1.98501         0.29165
   N       -1.39584         2.01829         1.11795
   C       -3.63993        -0.43913        -0.82169
   C       -2.79039        -0.96938         0.08025
   C       -2.84631        -2.39328         0.39125
   N       -2.00541        -3.23818        -0.20314
   C       -2.24633        -4.52128        -0.08029
   C       -3.39662        -4.93869         0.64806
   N       -3.98628        -4.04126         1.41288
   N       -3.70894        -2.78704         1.33278
   C       -3.92730        -6.26682         0.55461
   S       -4.77528        -6.99574         1.86915
   C       -5.09304        -8.41954         0.91487
   C       -4.56052        -8.29975        -0.36280
   C       -3.89845        -7.07794        -0.56338
   C       -3.35450        -6.69226        -1.91005
   N       -3.26068        -5.25173        -2.05100
   C       -4.23897        -7.38009        -2.96365
   C       -4.15603        -8.88979        -2.78512
   C       -4.67450        -9.36890        -1.41689
   N       -3.85976       -10.51560        -1.02229
   C       -5.82641        -9.51305         1.44301
   C       -6.23820        -9.63669         2.72440
   C       -6.96122       -10.78579         3.17478
   N       -7.20172       -11.79940         2.31677
   C       -7.89509       -12.80451         2.76964
   C       -8.27930       -12.87138         4.12879
   N       -7.93233       -11.85304         4.93165
   N       -7.34356       -10.82357         4.45657
   C       -8.95173       -14.00630         4.68903
   C       -9.84557       -14.00194         5.70452
   C      -10.17357       -15.27480         6.40822
   O       -9.94838       -16.39614         6.02226
   C      -10.77402       -14.85019         7.69098
   C      -10.93144       -13.45060         7.69975
   C      -10.50478       -12.91674         6.40968
   C      -10.87191       -11.70862         5.88635
   C      -11.59769       -10.73180         6.59992
   N      -12.18600        -9.90998         7.14287
   C      -10.65498       -11.34680         4.54045
   N      -10.55259       -11.04944         3.43665
   C      -11.44909       -12.82400         8.82433
   C      -11.81055       -13.60158         9.91348
   C      -11.66134       -14.98296         9.87872
   C      -11.13745       -15.63203         8.76878
  Br      -12.18265       -16.00606        11.39051
   H       -5.02106         3.01625        -2.90960
   H       -6.71576         2.51158        -4.60742
   H       -6.55313        -1.66490        -3.63771
   H       -2.07409        -0.37278         0.62638
   H       -1.46303        -5.20346        -0.36928
   H       -2.33414        -7.08996        -2.00659
   H       -4.16142        -4.79029        -1.98277
   H       -2.81996        -4.98812        -2.92318
   H       -3.89705        -7.10922        -3.96493
   H       -5.27071        -7.03808        -2.84905
   H       -3.11148        -9.19811        -2.86330
   H       -4.71524        -9.38948        -3.57755
   H       -5.74876        -9.62385        -1.50881
   H       -4.11209       -10.85009        -0.09964
   H       -3.98705       -11.27598        -1.68105
   H       -6.08167       -10.31241         0.75944
   H       -6.03763        -8.87695         3.46439
   H       -8.16653       -13.57927         2.06488
   H       -8.66879       -14.97881         4.30087
   H      -11.56392       -11.75323         8.87027
   H      -12.21250       -13.13227        10.79832
   H      -11.01603       -16.70380         8.74023
*
