# ORCA input file
# SCF done       -221.347460497224          0.000842319064
! CAM-B3LYP def2-SVP def2/J RIJCOSX Grid4 TightSCF
%maxcore 5000
%tddft
    Mode sTDDFT
    Ethresh 5.0
    maxcore 5000
end

%pal
  nprocs 6
  end
* xyz 0 1
   C       -3.97600        -1.04913         0.44133
   O       -4.23352        -2.01101        -0.24617
   C       -4.04703         0.36724         0.01077
   C       -3.67280         1.21197         1.06945
   C       -3.65469         2.58657         0.87669
   C       -4.01278         3.09081        -0.36399
   C       -4.38395         2.23685        -1.39510
   C       -4.40559         0.85910        -1.22746
  Br       -4.86848         2.97561        -3.07746
   C       -3.35537         0.39035         2.23160
   C       -3.10005         0.85408         3.49396
   C       -3.04401         2.22186         3.83558
   N       -2.97441         3.31876         4.16596
   C       -2.90224         0.03721         4.62860
   N       -2.75919        -0.55902         5.59918
   C       -3.45357        -1.00459         1.83098
   C       -2.91818        -2.05072         2.51894
   C       -3.02392        -3.45057         2.22452
   C       -4.18653        -4.01759         1.67612
   C       -4.22155        -5.36666         1.42491
   C       -3.08408        -6.16356         1.65533
   C       -1.94212        -5.61966         2.23163
   C       -1.93330        -4.27841         2.54235
   C       -3.35762        -7.50564         1.19386
   C       -4.66855        -7.54463         0.69154
   C       -5.34869        -6.20330         0.86521
   C       -6.48134        -6.40436         1.90123
   C       -7.14261        -5.13334         2.41742
   C       -5.88784        -5.64834        -0.46104
   C       -4.79151        -5.46550        -1.50384
   C       -5.18273        -8.71173         0.17610
   C       -4.38399        -9.85802         0.14030
   C       -3.07712        -9.80227         0.63056
   C       -2.55742        -8.63845         1.16207
   C       -4.91544       -11.12184        -0.38518
   C       -4.12315       -11.92986        -1.20613
   C       -4.61805       -13.13172        -1.65871
   C       -5.92389       -13.52756        -1.32502
   C       -6.71863       -12.72906        -0.51878
   C       -6.20558       -11.53354        -0.05114
   C       -6.20801       -14.78905        -1.98178
   C       -5.08380       -15.16020        -2.73408
   C       -3.95521       -14.17012        -2.53574
   C       -3.45848       -13.57970        -3.86314
   C       -4.58636       -12.95118        -4.67384
   C       -2.82906       -14.92229        -1.78754
   C       -1.66497       -14.06858        -1.30266
   C       -5.09230       -16.31619        -3.47934
   C       -6.22772       -17.13069        -3.46827
   C       -7.33594       -16.75806        -2.70723
   C       -7.33973       -15.58853        -1.96989
   C       -6.24571       -18.37633        -4.24551
   C       -5.76227       -18.39439        -5.55669
   C       -5.78749       -19.57084        -6.26871
   C       -6.27425       -20.75032        -5.68100
   C       -6.75175       -20.74114        -4.37867
   C       -6.73946       -19.55182        -3.67590
   C       -6.17690       -21.82116        -6.64818
   C       -5.63666       -21.29989        -7.83895
   C       -5.34481       -19.82527        -7.69031
   C       -6.16423       -18.98915        -8.69134
   C       -7.66480       -19.22878        -8.57421
   C       -3.84399       -19.52883        -7.87351
   C       -2.96776       -20.24267        -6.85139
   C       -5.45008       -22.10485        -8.93226
   C       -5.80790       -23.46305        -8.85983
   C       -6.37165       -23.96059        -7.67489
   C       -6.54098       -23.15831        -6.56703
   C       -5.68111       -24.34421        -9.98509
   C       -4.84305       -24.28124       -11.05160
   C       -5.16904       -25.05473       -12.27997
   O       -5.99245       -25.93154       -12.39320
   C       -4.30813       -24.47706       -13.33784
   C       -3.43916       -23.52679       -12.77035
   C       -3.65361       -23.49868       -11.32558
   C       -2.75545       -23.03774       -10.40055
   C       -1.58781       -22.31832       -10.72495
   N       -0.64775       -21.69541       -10.93941
   C       -2.86045       -23.29693        -9.01844
   N       -2.85778       -23.52191        -7.89309
   C       -2.55203       -22.83428       -13.58150
   C       -2.54241       -23.10467       -14.94113
   C       -3.39974       -24.05618       -15.47939
   C       -4.29922       -24.75835       -14.68841
  Br       -3.33961       -24.40113       -17.34692
   H       -3.36359         3.26489         1.66187
   H       -4.00137         4.15662        -0.53299
   H       -4.68946         0.19099        -2.02585
   H       -2.28456        -1.81340         3.36666
   H       -5.04080        -3.39309         1.47842
   H       -1.07978        -6.23662         2.43446
   H       -1.05716        -3.83545         2.99394
   H       -6.06626        -6.95145         2.75226
   H       -7.24025        -7.04014         1.43947
   H       -6.43834        -4.53273         2.98700
   H       -7.96758        -5.39924         3.07527
   H       -7.54170        -4.53382         1.60361
   H       -6.36284        -4.68367        -0.28230
   H       -6.64738        -6.33484        -0.84209
   H       -4.08764        -4.70180        -1.18305
   H       -5.22668        -5.15089        -2.44939
   H       -4.25076        -6.39605        -1.66529
   H       -6.18609        -8.74885        -0.22213
   H       -2.47259       -10.69738         0.61562
   H       -1.54903        -8.61419         1.54733
   H       -3.14457       -11.58182        -1.50069
   H       -7.72193       -13.03269        -0.25912
   H       -6.80450       -10.91208         0.59872
   H       -2.98709       -14.37302        -4.44757
   H       -2.70311       -12.81990        -3.65814
   H       -5.34604       -13.69154        -4.91531
   H       -4.19793       -12.53902        -5.60257
   H       -5.05899       -12.14854        -4.11187
   H       -2.44826       -15.69804        -2.45594
   H       -3.27751       -15.42298        -0.92503
   H       -1.19809       -13.52897        -2.12268
   H       -0.91211       -14.71119        -0.85056
   H       -1.99488       -13.35649        -0.55123
   H       -4.22690       -16.61547        -4.05302
   H       -8.21427       -17.38712        -2.71688
   H       -8.20920       -15.30756        -1.39443
   H       -5.39656       -17.48146        -6.00405
   H       -7.12433       -21.64485        -3.92034
   H       -7.09512       -19.52891        -2.65624
   H       -5.83435       -19.23192        -9.70398
   H       -5.95320       -17.93204        -8.51734
   H       -7.90562       -20.27260        -8.76426
   H       -8.19884       -18.61566        -9.29647
   H       -8.01706       -18.97205        -7.57764
   H       -3.69009       -18.45034        -7.79265
   H       -3.54685       -19.83009        -8.88096
   H       -3.21021       -19.91661        -5.84244
   H       -1.91998       -20.02301        -7.04337
   H       -3.10515       -21.32030        -6.90550
   H       -5.07694       -21.69671        -9.86077
   H       -6.64895       -25.00360        -7.63199
   H       -6.95837       -23.56186        -5.65718
   H       -6.40684       -25.15136       -10.03455
   H       -1.88290       -22.08992       -13.18093
   H       -1.86220       -22.57364       -15.58915
   H       -4.96678       -25.49757       -15.10317
*
