# ORCA input file
# SCF done       -186.325543564650          0.000764454911
! CAM-B3LYP def2-SVP def2/J RIJCOSX Grid4 TightSCF
%maxcore 5000
%tddft
    Mode sTDDFT
    Ethresh 5.0
    maxcore 5000
end

%pal
  nprocs 6
  end
* xyz 0 1
   C       -1.07205        -1.21312         0.28845
   O       -0.68424        -2.31757        -0.02124
   C       -0.21263        -0.04460         0.58097
   C       -1.00852         1.08650         0.82918
   C       -0.39975         2.30161         1.11370
   C        0.98447         2.36264         1.14995
   C        1.75086         1.22987         0.90480
   C        1.16583         0.00586         0.61177
  Br        3.64475         1.36227         0.97227
   C       -2.41246         0.70347         0.72676
   C       -3.47993         1.51178         1.01036
   C       -3.36622         2.86735         1.38729
   N       -3.33842         3.97288         1.69392
   C       -4.83389         1.11068         0.99754
   N       -5.95454         0.86367         1.02659
   C       -2.46440        -0.70335         0.35503
   C       -3.57674        -1.36384        -0.06800
   C       -3.72949        -2.76414        -0.34700
   C       -3.05260        -3.75690         0.38160
   C       -3.27736        -5.07984         0.08808
   C       -4.19300        -5.43829        -0.92009
   C       -4.87722        -4.46545        -1.63883
   C       -4.65334        -3.14110        -1.33688
   C       -4.30045        -6.87912        -0.96019
   C       -3.46211        -7.41405         0.03143
   C       -2.70163        -6.31568         0.74293
   C       -1.20423        -6.50974         0.40585
   C       -0.25133        -5.46166         0.96353
   C       -2.95119        -6.33112         2.25890
   C       -4.43537        -6.29420         2.60583
   C       -3.39827        -8.77177         0.23325
   C       -4.18439        -9.62469        -0.55317
   C       -5.01785        -9.07827        -1.53615
   C       -5.07879        -7.71583        -1.74770
   C       -4.13978       -11.06664        -0.34246
   C       -3.03762       -11.72618         0.16226
   C       -2.99692       -13.10852         0.39629
   C       -4.05915       -13.95438         0.14655
   C       -5.21514       -13.32701        -0.39382
   C       -5.24937       -11.90318        -0.64106
   N       -6.44299       -11.62734        -1.13102
   O       -7.10444       -12.77754        -1.19087
   N       -6.38723       -13.81293        -0.75341
   C       -4.02410       -15.36309         0.41503
   C       -5.02803       -16.26043         0.17283
   C       -4.72165       -17.58745         0.56357
   C       -3.41967       -17.65657         1.12536
   S       -2.62122       -16.11203         1.14076
   C       -2.80636       -18.79526         1.63365
   O       -1.55926       -18.58622         2.10781
   C       -0.79106       -19.62265         2.67485
   C       -3.56128       -19.98924         1.58731
   C       -4.86070       -19.92037         1.01367
   C       -5.46703       -18.78290         0.49949
   O       -6.71267       -18.99613         0.00927
   C       -7.46037       -17.96798        -0.59475
   S       -5.67274       -21.45710         1.02116
   C       -4.29002       -22.19900         1.80021
   C       -3.27354       -21.30101         2.02263
   C       -4.29947       -23.57430         2.14123
   C       -5.41973       -24.47876         1.86008
   N       -5.24424       -25.70093         2.26011
   C       -4.00758       -25.72019         2.83739
   C       -3.37652       -24.38403         2.77528
   C       -2.08074       -24.43450         3.39339
   S       -0.96262       -23.24549         3.59496
   C       -1.94044       -25.80816         3.83401
   C       -3.15396       -26.57877         3.47148
   N       -3.03618       -27.86856         3.88486
   C       -1.86477       -27.93807         4.46243
   C       -1.12545       -26.68799         4.46891
   H       -0.97424         3.19380         1.30061
   H        1.47365         3.29921         1.36937
   H        1.75478        -0.87699         0.41682
   H       -4.46458        -0.77065        -0.25586
   H       -2.41091        -3.47023         1.19767
   H       -5.58698        -4.74290        -2.40318
   H       -5.18168        -2.36884        -1.87710
   H       -1.10797        -6.52850        -0.68286
   H       -0.90908        -7.49367         0.77937
   H       -0.45596        -4.48186         0.54441
   H        0.76822        -5.73264         0.69724
   H       -0.30985        -5.40778         2.04762
   H       -2.46009        -5.46786         2.70881
   H       -2.50109        -7.23230         2.68057
   H       -4.90177        -5.39758         2.20305
   H       -4.56727        -6.29410         3.68537
   H       -4.95083        -7.16043         2.19684
   H       -2.77920        -9.17831         1.01875
   H       -5.62126        -9.74031        -2.13557
   H       -5.72536        -7.31188        -2.51165
   H       -2.14328       -11.16188         0.37781
   H       -2.08767       -13.53410         0.79522
   H       -5.94791       -15.93089        -0.26831
   H       -0.59153       -20.41797         1.95296
   H       -1.26804       -20.03685         3.56606
   H        0.15044       -19.15450         2.95923
   H       -8.37762       -18.44843        -0.93373
   H       -6.93784       -17.54251        -1.45545
   H       -7.71193       -17.17995         0.12002
   H       -2.36366       -21.62124         2.49368
   H       -6.32746       -24.18155         1.36307
   H       -1.52049       -28.86665         4.88372
   H       -0.15205       -26.54008         4.89362
*
