# ORCA input file
# SCF done       -203.563131724284          0.000586525282
! CAM-B3LYP def2-SVP def2/J RIJCOSX Grid4 TightSCF
%maxcore 5000
%tddft
    Mode sTDDFT
    Ethresh 5.0
    maxcore 5000
end

%pal
  nprocs 6
  end
* xyz 0 1
   C        9.35461        22.13592         8.96682
   C        9.88610        23.08389         9.79920
   C       11.26691        23.11962        10.04104
   C       12.09713        22.20771         9.44729
   C       11.58251        21.21599         8.58883
   C       12.43443        20.25658         7.99185
   C       11.89998        19.29330         7.18129
   C       10.49776        19.27527         6.92394
   C        9.65307        20.18760         7.48528
   C       10.18040        21.18110         8.34251
   C       10.18815        18.15256         6.01849
   O        9.10279        17.80647         5.60238
   C       11.49785        17.54220         5.68475
   C       12.50881        18.14780         6.50497
   C       13.75177        17.63279         6.80606
   C       14.68773        18.27672         7.63803
   N       15.50708        18.76253         8.28058
   C       14.20438        16.35277         6.43381
   N       14.61147        15.29994         6.21681
   C       11.58278        16.57796         4.70205
   C       12.73104        16.15361         4.04329
   C       12.83479        14.95861         3.35134
   C       14.02081        14.40258         2.83422
   C       13.89540        13.09503         2.44717
   C       12.59895        12.58068         2.60962
   S       11.52420        13.80773         3.22529
   C       12.18824        11.25045         2.48218
   C       13.02247        10.11994         2.47342
   C       12.33686         8.94560         2.63926
   C       10.93985         9.09920         2.71147
   S       10.51284        10.78259         2.53088
   C       10.05032         8.10404         3.09541
   C        8.65983         8.09598         3.03025
   C        7.91770         7.22369         3.89194
   C        6.48564         7.18611         3.88578
   N        5.83339         6.49174         4.82125
   C        6.52207         5.79992         5.70667
   C        7.94295         5.74406         5.63771
   N        8.60099         6.47008         4.75648
   C        8.67233         4.91467         6.52492
   N        9.23616         4.23527         7.25489
   C        5.82525         5.10113         6.72309
   N        5.28962         4.52536         7.55626
   C        5.71376         7.82713         2.86198
   C        6.46230         8.61799         1.94428
   C        7.87924         8.83050         2.09211
   N        8.34579         9.68014         1.18658
   S        7.14056        10.16906         0.23636
   N        5.96270         9.32265         0.93763
   C        4.32759         7.69554         2.87023
   C        3.42455         7.83057         1.82460
   C        2.02434         7.79044         1.96895
   C        1.34112         7.68539         0.78654
   C        2.18733         7.57801        -0.32994
   S        3.85308         7.77865         0.13276
   C        1.81819         7.20697        -1.62609
   C        0.52060         7.10186        -2.15283
   C        0.47894         6.53450        -3.39918
   C        1.73942         6.14375        -3.89065
   S        2.99647         6.61152        -2.76433
   C        1.98042         5.38903        -5.02775
   C        3.23702         4.90002        -5.36405
   C        3.47941         3.97384        -6.36095
   C        4.74969         3.38494        -6.69512
   C        5.98790         3.75996        -6.22312
   C        7.19585         3.14162        -6.60042
   N        8.21671         2.68278        -6.86033
   C        6.23779         4.81206        -5.32122
   N        6.53023         5.65439        -4.59541
   C        4.50462         2.30552        -7.64956
   C        3.11219         2.27389        -7.94699
   C        2.57632         1.35111        -8.79688
   C        3.42386         0.39053        -9.39516
   C        2.92628        -0.59790       -10.26613
   C        3.76437        -1.52549       -10.82390
   C        5.13674        -1.50235       -10.53679
   C        5.65200        -0.55329        -9.69574
   C        4.81721         0.41439        -9.10221
   C        5.34451         1.38965        -8.22255
   C        2.42728         3.33082        -7.18057
   O        1.24071         3.59580        -7.21217
   H        8.29148        22.10327         8.77776
   H        9.24505        23.81033        10.27602
   H       11.67044        23.87232        10.70178
   H       13.16100        22.22848         9.63345
   H       13.49241        20.31138         8.19459
   H        8.59229        20.14824         7.28661
   H       10.63631        16.13146         4.41099
   H       13.63182        16.74792         4.11100
   H       14.93992        14.95943         2.80917
   H       14.70117        12.50277         2.05304
   H       14.09318        10.19278         2.41694
   H       12.80122         7.97840         2.71532
   H       10.49179         7.23790         3.57499
   H        3.90743         7.36239         3.81240
   H        1.55728         7.82952         2.93713
   H        0.27086         7.62379         0.70975
   H       -0.34618         7.44033        -1.61446
   H       -0.42212         6.35779        -3.95872
   H        1.13132         5.11142        -5.63627
   H        4.07020         5.23094        -4.75569
   H        1.51646         1.34682        -9.00449
   H        1.86807        -0.61111       -10.48335
   H        3.37391        -2.28177       -11.48853
   H        5.78466        -2.24110       -10.98446
   H        6.70841        -0.53190        -9.47110
   H        6.40326         1.37654        -8.01817
*
