# ORCA input file
# SCF done       -167.990263912965          0.000622720382
! CAM-B3LYP def2-SVP def2/J RIJCOSX Grid4 TightSCF
%maxcore 5000
%tddft
    Mode sTDDFT
    Ethresh 5.0
    maxcore 5000
end

%pal
  nprocs 6
  end
* xyz 0 1
   C       -1.96289         0.44720         3.92815
   C       -1.81100         0.63725         5.24702
   C       -2.17511         1.90396         5.83117
   C       -2.05204         2.16167         7.18198
   C       -2.41350         3.40366         7.73034
   N       -2.71289         4.42320         8.16671
   C       -1.56420         1.19758         8.07964
   N       -1.16693         0.40439         8.80921
   C       -2.67778         2.87205         4.91215
   C       -2.79960         2.58261         3.58578
   O       -2.44453         1.37148         3.07749
   C       -3.31326         3.49310         2.60567
   C       -3.50033         3.23606         1.26015
   C       -4.04089         4.33443         0.59485
   C       -4.26074         5.43614         1.44569
   S       -3.80369         5.11582         3.05744
   C       -4.82246         6.49592         0.69391
   C       -4.96213         6.05776        -0.63909
   C       -4.47170         4.69234        -0.74614
   C       -4.42691         3.91452        -1.86565
   C       -4.87965         4.37345        -3.12103
   N       -5.24378         4.73550        -4.14622
   C       -3.92315         2.59681        -1.84036
   N       -3.51265         1.52625        -1.81998
   C       -5.52483         7.02116        -1.46439
   C       -5.81137         8.19200        -0.77205
   S       -5.37302         8.10339         0.92286
   C       -6.40185         9.36771        -1.29983
   C       -6.61415        10.50130        -0.47795
   C       -7.21296        11.71578        -0.94748
   N       -7.36859        12.74092        -0.08721
   C       -6.97372        12.60516         1.14763
   C       -6.38754        11.40966         1.61004
   N       -6.22144        10.39886         0.80462
   C       -7.64280        11.84644        -2.29524
   C       -7.43065        10.71641        -3.11281
   C       -6.82133         9.49847        -2.63968
   N       -6.73718         8.58636        -3.61115
   S       -7.34993         9.18392        -4.96303
   N       -7.76020        10.63196        -4.40389
   C       -8.25316        13.01266        -2.83108
   C       -8.52353        14.21372        -2.18561
   C       -9.13237        15.13250        -3.02843
   C       -9.33339        14.63316        -4.33162
   S       -8.76545        13.03189        -4.51311
   C       -9.95720        15.64488        -5.10027
   C      -10.15010        16.78120        -4.28927
   C       -9.63614        16.49575        -2.96056
   C       -9.62379        17.32748        -1.87951
   C      -10.14155        18.63869        -1.93908
   N      -10.56237        19.70415        -1.98858
   C       -9.09182        16.93530        -0.63260
   N       -8.66251        16.62784         0.38514
   C      -10.76249        17.83263        -4.96875
   C      -11.03478        17.50404        -6.28346
   S      -10.52894        15.87410        -6.69084
   C      -11.65549        18.34546        -7.26361
   C      -11.89929        17.97195        -8.55146
   C      -12.52025        18.86894        -9.47051
   C      -12.77922        18.52156       -10.78132
   C      -13.39007        19.41356       -11.67827
   N      -13.88936        20.14759       -12.40707
   C      -12.44340        17.25453       -11.28715
   N      -12.16368        16.21499       -11.68788
   C      -12.85587        20.16273        -8.93025
   C      -12.57688        20.43846        -7.64780
   O      -11.98982        19.57859        -6.79573
   H       -1.71379        -0.47035         3.41680
   H       -1.42080        -0.14594         5.87545
   H       -2.97093         3.84471         5.27635
   H       -3.25415         2.29167         0.81008
   H       -5.73282         6.91433        -2.51315
   H       -7.11972        13.45743         1.79616
   H       -6.05750        11.28494         2.63119
   H       -8.27297        14.36863        -1.15288
   H      -11.00485        18.79140        -4.54799
   H      -11.61916        16.98426        -8.88411
   H      -13.32785        20.89685        -9.56179
   H      -12.79643        21.38152        -7.17046
*
