# ORCA input file
# SCF done       -182.802321321270          0.000535431260
! CAM-B3LYP def2-SVP def2/J RIJCOSX Grid4 TightSCF
%maxcore 5000
%tddft
    Mode sTDDFT
    Ethresh 5.0
    maxcore 5000
end

%pal
  nprocs 6
  end
* xyz 0 1
   C      -16.83470        -3.59133         0.72202
   C      -16.27125        -3.41832         1.94333
   C      -16.69346        -2.99254         3.29263
   O      -17.77625        -2.67140         3.70756
   N      -15.52954        -3.03697         4.05085
   C      -15.49083        -2.68478         5.44888
   C      -14.40297        -3.45420         3.34901
   O      -13.30202        -3.56648         3.82984
   C      -14.87837        -3.70192         1.98167
   C      -14.36571        -4.09687         0.76746
   S      -15.65646        -4.11057        -0.42491
   C      -13.03790        -4.45239         0.41243
   C      -11.94654        -4.57828         1.25622
   C      -10.79521        -4.93279         0.55674
   C      -11.01312        -5.06706        -0.83094
   S      -12.63457        -4.77590        -1.26762
   C       -9.79111        -5.39138        -1.46170
   C       -8.79215        -5.47250        -0.46836
   C       -9.39115        -5.19491         0.82984
   C       -8.75441        -5.18850         2.03470
   C       -9.40586        -4.93345         3.26185
   N       -9.89673        -4.74641         4.28035
   C       -7.37111        -5.45074         2.14668
   N       -6.24775        -5.65645         2.24889
   C       -7.54184        -5.76979        -0.98910
   C       -7.57327        -5.90465        -2.37351
   S       -9.18359        -5.67209        -3.03579
   C       -6.47067        -6.15347        -3.22828
   C       -6.62928        -6.18004        -4.63241
   C       -5.51431        -6.32664        -5.53206
   N       -5.72735        -6.32345        -6.85202
   C       -6.94539        -6.19419        -7.32040
   C       -8.05445        -6.04826        -6.42558
   N       -7.86323        -6.04338        -5.12812
   C       -9.37122        -5.91074        -6.92949
   N      -10.42583        -5.80304        -7.36297
   C       -7.15552        -6.20806        -8.72144
   N       -7.36079        -6.21832        -9.84808
   C       -4.18550        -6.46994        -5.07214
   C       -4.03088        -6.51412        -3.66576
   C       -5.14898        -6.35304        -2.76284
   N       -4.75862        -6.41160        -1.48945
   S       -3.17471        -6.64428        -1.42323
   N       -2.88781        -6.67937        -2.99950
   C       -3.09864        -6.52381        -5.98049
   C       -1.75514        -6.70013        -5.66635
   C       -0.94797        -6.63343        -6.79217
   C       -1.67797        -6.39578        -7.97685
   S       -3.36115        -6.29188        -7.70302
   C       -0.76401        -6.30100        -9.05400
   C        0.54190        -6.48656        -8.55181
   C        0.46745        -6.70975        -7.11802
   C        1.50232        -6.93743        -6.25902
   C        1.30379        -7.13645        -4.87622
   N        1.15295        -7.29924        -3.75131
   C        2.84151        -6.98901        -6.69995
   N        3.92979        -7.02989        -7.05904
   C        1.51381        -6.37955        -9.54067
   C        0.95658        -6.10549       -10.77951
   S       -0.79646        -5.98683       -10.73035
   C        1.65476        -5.90786       -11.99700
   C        1.16288        -5.56758       -13.23316
   C       -0.14015        -5.27868       -13.82887
   O       -1.24050        -5.28471       -13.32683
   N        0.13212        -4.98013       -15.15814
   C       -0.89306        -4.62841       -16.10957
   C        1.48250        -5.05329       -15.49430
   O        1.92879        -4.84229       -16.59093
   C        2.15889        -5.43260       -14.23682
   C        3.41576        -5.66985       -13.78527
   S        3.40206        -6.06581       -12.10336
   H      -17.85241        -3.44952         0.41816
   H      -16.34885        -3.12539         5.95546
   H      -15.52680        -1.60044         5.56965
   H      -14.56137        -3.06748         5.86695
   H      -12.01068        -4.40643         2.31692
   H       -6.63187        -5.88240        -0.42917
   H       -1.42298        -6.85779        -4.65677
   H        2.57384        -6.48277        -9.39080
   H       -1.85863        -4.85567       -15.66127
   H       -0.75325        -5.20322       -17.02469
   H       -0.84038        -3.56495       -16.34942
   H        4.34562        -5.63995       -14.31695
*
