# ORCA input file
# SCF done       -218.250191409851          0.001038955506
! CAM-B3LYP def2-SVP def2/J RIJCOSX Grid4 TightSCF
%maxcore 5000
%tddft
    Mode sTDDFT
    Ethresh 5.0
    maxcore 5000
end

%pal
  nprocs 6
  end
* xyz 0 1
   C       -3.27633         0.04862        -3.73157
   C       -2.29050        -0.52550        -2.97354
   C       -1.71052        -1.77920        -3.25791
   N       -1.21306        -2.79750        -3.43810
   C       -1.78379         0.02500        -1.77817
   N       -1.35365         0.39785        -0.78046
   C       -3.91139        -0.53622        -4.90561
   C       -5.01723         0.27203        -5.27223
   C       -5.81473        -0.01187        -6.35389
   C       -5.50119        -1.14345        -7.11423
   C       -4.39000        -1.93949        -6.74488
   C       -3.58682        -1.65550        -5.64708
   S       -4.17620        -3.27993        -7.82797
   C       -5.56517        -2.76403        -8.74746
   C       -6.15895        -1.64355        -8.27084
  Br       -6.10028        -3.75099       -10.24879
   C       -5.11642         1.40960        -4.34117
   O       -5.98412         2.26315        -4.32381
   C       -3.93974         1.30948        -3.46456
   C       -3.44656         2.31494        -2.67890
   C       -4.02530         3.54774        -2.34293
   S       -5.68582         4.00383        -2.57467
   C       -5.44592         5.48582        -1.69311
   C       -4.10386         5.65446        -1.33277
   C       -3.31495         4.55731        -1.67102
   S       -1.57325         4.43318        -1.45105
   C       -1.43421         4.47751         0.37284
   C       -2.10288         3.27387         1.00262
   S       -3.50781         7.08171        -0.47353
   C       -3.55747         8.33015        -1.81091
   C       -2.35940         8.20009        -2.72951
   C       -6.50281         6.37246        -1.41711
   C       -7.82396         6.06501        -1.59896
   C       -8.89622         6.93991        -1.35117
   C       -8.77773         8.30722        -1.25657
   C       -9.83912         9.18214        -1.04436
   C       -9.71070        10.55552        -1.16787
   C      -10.70151        11.54672        -1.03235
   C      -10.27600        12.80966        -1.35552
   C       -8.93229        12.86149        -1.76074
   S       -8.20016        11.28689        -1.67314
   C       -8.19648        13.91850        -2.29912
   C       -8.59490        15.21543        -2.65084
   C       -7.63877        15.89000        -3.36800
   C       -6.46608        15.14671        -3.61573
   S       -6.55112        13.61946        -2.79154
   C       -5.51546        15.47981        -4.57576
   C       -4.51795        14.66670        -5.09861
   C       -4.02017        14.92621        -6.42311
   C       -3.38580        13.89326        -7.19418
   N       -3.01889        14.14179        -8.45789
   C       -3.24531        15.33038        -8.97078
   C       -3.88325        16.34903        -8.20748
   N       -4.25212        16.12068        -6.96014
   C       -4.12588        17.62493        -8.77019
   N       -4.31612        18.64743        -9.25151
   C       -2.83729        15.59586       -10.30340
   N       -2.52802        15.84890       -11.37651
   C       -3.20408        12.57497        -6.68599
   C       -3.40406        12.43349        -5.28938
   C       -4.02393        13.47016        -4.50804
   N       -4.07627        13.15884        -3.22306
   S       -3.41410        11.70599        -2.99459
   N       -3.04387        11.39736        -4.53966
   C       -2.81014        11.53262        -7.54224
   C       -2.91120        10.17438        -7.35712
   C       -3.68487         9.36992        -6.45631
   C       -4.83906         9.73213        -5.79135
   C       -5.49199         8.93908        -4.83610
   N       -6.03468         8.37861        -3.98872
   C       -5.53455        10.93561        -6.00195
   N       -6.17740        11.87776        -6.14559
   C       -3.15274         8.01006        -6.50566
   C       -2.16433         7.94493        -7.51757
   C       -2.02918         9.27985        -8.14519
   O       -1.32559         9.58014        -9.08226
   C       -1.49284         6.78888        -7.82507
   C       -1.81615         5.63522        -7.10091
   C       -2.81747         5.70559        -6.10648
   C       -3.49707         6.87696        -5.79438
   S       -3.08068         4.16047        -5.35519
   C       -1.85323         3.45475        -6.37024
   C       -1.27596         4.32550        -7.22942
  Br       -1.45542         1.62969        -6.19747
   H       -6.65049         0.62065        -6.60966
   H       -2.74444        -2.28344        -5.40993
   H       -7.02491        -1.18781        -8.71540
   H       -2.44778         2.18889        -2.27486
   H       -1.86233         5.41649         0.72004
   H       -0.35952         4.47512         0.55048
   H       -3.17753         3.29559         0.82685
   H       -1.92972         3.28423         2.07648
   H       -1.70113         2.34890         0.59375
   H       -3.55445         9.28737        -1.28972
   H       -4.49679         8.21215        -2.34977
   H       -1.43448         8.32388        -2.17022
   H       -2.40360         8.96281        -3.50526
   H       -2.34210         7.21998        -3.20366
   H       -6.23194         7.31865        -0.96973
   H       -8.06784         5.06414        -1.93187
   H       -9.88712         6.50726        -1.29757
   H       -7.80729         8.75329        -1.42872
   H      -10.81930         8.78580        -0.81381
   H      -11.70253        11.30730        -0.71966
   H      -10.89916        13.68533        -1.32758
   H       -9.56524        15.61297        -2.41316
   H       -7.77091        16.87989        -3.76785
   H       -5.68192        16.40852        -5.10819
   H       -2.32466        11.84145        -8.46290
   H       -0.74760         6.77014        -8.60451
   H       -4.25731         6.87625        -5.03090
   H       -0.50183         4.05983        -7.92600
*
