# ORCA input file
# SCF done       -202.496492941279          0.000540735883
! CAM-B3LYP def2-SVP def2/J RIJCOSX Grid4 TightSCF
%maxcore 5000
%tddft
    Mode sTDDFT
    Ethresh 5.0
    maxcore 5000
end

%pal
  nprocs 6
  end
* xyz 0 1
   C       -0.54345        -0.01235        -0.02104
   C       -0.49026        -1.20883         0.64653
   C        0.62238        -2.07409         0.63665
   N        1.49992        -2.81349         0.66554
   C       -1.54383        -1.71863         1.43209
   N       -2.37861        -2.16753         2.07978
   C        0.52441         0.56135        -0.83701
   C        0.09500         1.81651        -1.34227
   C        0.88250         2.59851        -2.15238
   C        2.15518         2.12091        -2.48222
   C        2.57580         0.86903        -1.97352
   C        1.77889         0.07815        -1.15282
   S        4.17929         0.46942        -2.50600
   C        4.26304         1.96776        -3.39395
   C        3.14771         2.73038        -3.29687
  Br        5.81253         2.38430        -4.36443
   C       -1.26580         2.07794        -0.86258
   O       -1.96260         3.06491        -1.09031
   C       -1.64675         0.91878        -0.05244
   C       -2.89343         0.82364         0.52052
   N       -3.77764         1.81288         0.35114
   C       -5.05585         1.86778         0.79319
   S       -5.77065         0.57255         1.70090
   C       -7.26293         1.45693         1.73442
   N       -8.35141         0.87785         2.40602
   O       -9.39662         1.49854         2.42296
   O       -8.16181        -0.20896         2.92010
   C       -7.21070         2.66070         1.08985
   C       -5.93901         2.93152         0.53822
   C       -5.57181         4.11757        -0.16807
   C       -6.45074         5.05594        -0.61213
   C       -6.05797         6.22457        -1.28839
   C       -6.93530         7.12386        -1.83792
   C       -6.61468         8.32032        -2.52886
   C       -7.69286         8.99133        -3.01648
   C       -8.92997         8.35965        -2.74714
   S       -8.67808         6.90157        -1.81632
   C      -10.18792         8.73969        -3.16813
   C      -10.54557         9.84980        -3.96824
   C      -11.86798         9.89845        -4.28015
   C      -12.63453         8.82850        -3.74619
   S      -11.60473         7.77951        -2.79279
   C      -13.96713         8.61000        -3.97900
   C      -14.75338         7.54652        -3.50613
   C      -16.07830         7.29866        -3.88639
   C      -16.73658         8.12547        -4.80526
   N      -17.23203         8.83219        -5.56215
   C      -16.61585         6.14547        -3.26556
   C      -15.68942         5.54987        -2.41402
   S      -14.16754         6.35158        -2.36351
   S      -16.24140         4.11486        -1.61103
   C      -17.74863         4.29335        -2.44266
   C      -17.82943         5.39869        -3.28839
   C      -19.06981         5.43108        -3.97180
   C      -19.50801         6.45511        -4.82586
   N      -19.91712         7.27621        -5.51458
   C      -19.88626         4.35349        -3.64358
   S      -19.16170         3.32021        -2.43694
   C      -21.18309         4.04410        -4.14155
   C      -21.69153         4.30364        -5.36983
   C      -21.09170         4.73745        -6.61945
   C      -19.82808         4.45930        -7.06354
   C      -18.86421         3.75144        -6.31894
   N      -18.05188         3.16041        -5.76306
   C      -19.36420         4.77767        -8.35818
   N      -18.94046         4.99664        -9.40128
   C      -22.16185         5.29631        -7.43262
   C      -23.40865         4.98252        -6.83259
   C      -23.17397         4.26255        -5.56886
   O      -23.98492         3.77960        -4.81609
   C      -24.60785         5.35086        -7.39436
   C      -24.57223         6.07138        -8.59261
   C      -23.31992         6.39932        -9.16936
   C      -22.10750         6.02041        -8.60781
   S      -23.51002         7.30855       -10.63544
   C      -25.24340         7.23121       -10.46391
   C      -25.66150         6.56264        -9.36244
  Br      -26.33737         8.03998       -11.75243
   H        0.52852         3.54790        -2.52248
   H        2.14442        -0.86877        -0.79242
   H        3.02874         3.68291        -3.78004
   H       -3.20472        -0.03162         1.10588
   H       -3.41338         2.59565        -0.22460
   H       -8.05818         3.31907         1.04023
   H       -4.52047         4.27220        -0.37098
   H       -7.51306         4.91175        -0.46998
   H       -5.00051         6.42572        -1.39700
   H       -5.59432         8.64028        -2.64505
   H       -7.63529         9.91200        -3.56858
   H       -9.81898        10.56993        -4.29853
   H      -12.32584        10.65852        -4.88773
   H      -14.47673         9.31380        -4.62547
   H      -21.86700         3.57437        -3.44092
   H      -25.54392         5.09421        -6.92379
   H      -21.17575         6.30367        -9.06832
   H      -26.69456         6.42135        -9.10214
*
