# ORCA input file
# SCF done       -189.005551845153          0.000353956719
! CAM-B3LYP def2-SVP def2/J RIJCOSX Grid4 TightSCF
%maxcore 5000
%tddft
    Mode sTDDFT
    Ethresh 5.0
    maxcore 5000
end

%pal
  nprocs 6
  end
* xyz 0 1
   C      -11.88919        -1.18652         1.66509
   C      -11.23934        -1.97629         2.57822
   C      -11.71192        -3.23031         3.01613
   N      -12.04523        -4.25933         3.40160
   C      -10.03765        -1.63117         3.23236
   N       -9.08131        -1.41276         3.82901
   C      -13.18729        -1.46965         1.06505
   C      -13.57984        -0.35366         0.28714
   C      -14.76396        -0.31615        -0.40748
   C      -15.60538        -1.43072        -0.32584
   C      -15.20381        -2.54195         0.45248
   C      -14.00379        -2.58211         1.15166
   S      -16.38664        -3.81472         0.40704
   C      -17.39090        -2.84854        -0.64088
   C      -16.86999        -1.63580        -0.94284
  Br      -19.03250        -3.53170        -1.23843
   C      -12.52228         0.67827         0.32923
   O      -12.50205         1.70174        -0.31932
   C      -11.45933         0.11729         1.20095
   C      -10.21692         0.65792         1.35139
   C       -9.87087         2.00624         1.04483
   C       -8.60169         2.35090         0.57593
   F       -7.69015         1.37635         0.41724
   C       -8.23190         3.64074         0.19668
   F       -6.96005         3.80274        -0.21316
   C       -9.09055         4.74357         0.28164
   C      -10.33854         4.43630         0.89044
   C      -10.72828         3.11430         1.24684
   N      -11.93767         3.19306         1.81225
   N      -12.23482         4.46151         1.76295
   N      -11.34410         5.25283         1.23076
   C      -13.48273         4.95927         2.25180
   C       -8.85485         6.07693        -0.13642
   C       -7.99023         6.57599        -1.07719
   C       -7.89912         7.96130        -1.40451
   C       -7.06561         8.24070        -2.43845
   C       -6.45149         7.09257        -2.99871
   S       -6.95603         5.65458        -2.14489
   C       -5.57787         7.01123        -4.06057
   C       -5.09581         8.06968        -4.87321
   C       -4.25663         7.65276        -5.85402
   C       -4.02872         6.24559        -5.86406
   S       -4.91827         5.46392        -4.57965
   C       -3.24365         5.53653        -6.72345
   C       -3.11451         4.12222        -6.57311
   N       -3.80232         3.57685        -5.55805
   C       -3.69370         2.28215        -5.35465
   C       -2.90088         1.48634        -6.16565
   C       -2.23296         2.12754        -7.22112
   N       -2.34855         3.43619        -7.41916
   C       -1.37310         1.37454        -8.11174
   C       -0.62200         1.95890        -9.06156
   C        0.22190         1.26101        -9.97934
   C        0.91620         0.11072        -9.80450
   C        1.22795        -0.69076        -8.63282
   C        1.39024        -0.24297        -7.35025
   C        1.78687        -1.06844        -6.27650
   N        2.08936        -1.70231        -5.36904
   C        1.25685         1.10346        -6.95040
   N        1.20393         2.18088        -6.55986
   C        1.57782        -2.02503        -9.10760
   C        1.72039        -1.98832       -10.51838
   C        1.40570        -0.63197       -11.00455
   O        1.47294        -0.20999       -12.13433
   C        2.08207        -3.09282       -11.25202
   C        2.30274        -4.29022       -10.56399
   C        2.14309        -4.32001        -9.15676
   C        1.78454        -3.20266        -8.41357
   S        2.45228        -5.90237        -8.51143
   C        2.79205        -6.49488       -10.11606
   C        2.67824        -5.55755       -11.08724
  Br        3.26125        -8.29391       -10.35686
   H      -15.03323         0.54646        -0.99670
   H      -13.73780        -3.45538         1.72353
   H      -17.35474        -0.91518        -1.57592
   H       -9.40198         0.02862         1.68870
   H      -13.65668         4.58240         3.25924
   H      -14.29403         4.62093         1.60540
   H      -13.43755         6.04571         2.25187
   H       -9.53677         6.79249         0.30642
   H       -8.45900         8.69747        -0.85509
   H       -6.87398         9.22952        -2.81485
   H       -5.38071         9.09500        -4.71461
   H       -3.78494         8.29692        -6.57515
   H       -2.69947         6.01930        -7.51820
   H       -4.25925         1.87926        -4.52466
   H       -2.79864         0.42732        -5.99523
   H       -1.37025         0.30043        -7.97732
   H       -0.72691         3.02771        -9.19355
   H        0.27374         1.67267       -10.98369
   H        2.19084        -3.03503       -12.32361
   H        1.66781        -3.27446        -7.34487
   H        2.85111        -5.75046       -12.13019
*
