# ORCA input file
# SCF done       -179.152397792294          0.000752507242
! CAM-B3LYP def2-SVP def2/J RIJCOSX Grid4 TightSCF
%maxcore 5000
%tddft
    Mode sTDDFT
    Ethresh 5.0
    maxcore 5000
end

%pal
  nprocs 6
  end
* xyz 0 1
   C        1.78508        -1.51857        -7.58224
   C        2.36424        -0.34889        -7.17676
   F        2.96377         0.45080        -8.06899
   C        2.33868         0.03119        -5.82029
   F        2.91366         1.18421        -5.44998
   C        1.73516        -0.76464        -4.88726
   C        1.13129        -1.97682        -5.27330
   C        1.15374        -2.36126        -6.64537
   C        0.55157        -3.57229        -7.05661
   C       -0.05485        -4.37370        -6.12474
   C       -0.06452        -3.98628        -4.75564
   C        0.50954        -2.82359        -4.32890
   C       -0.73487        -5.02611        -3.95161
   O       -0.82191        -5.05349        -2.74292
   C       -1.15015        -6.07426        -4.92317
   C       -0.75193        -5.64864        -6.25308
   C       -1.05648        -6.28022        -7.42925
   C       -0.67287        -5.80563        -8.70118
   N       -0.38430        -5.46767        -9.75958
   C       -1.82449        -7.45975        -7.53687
   N       -2.46154        -8.39839        -7.71112
   C       -1.65158        -7.28520        -4.56756
   C       -2.16979        -7.57845        -3.26025
   N       -1.90796        -8.76249        -2.73535
   N       -2.28975        -9.10127        -1.54519
   C       -2.98054        -8.29486        -0.75320
   C       -3.38980        -7.01912        -1.21737
   C       -2.98402        -6.65263        -2.53789
   N       -3.50080        -5.48837        -2.90788
   S       -4.36809        -4.89314        -1.68976
   N       -4.15948        -6.10470        -0.63692
   N       -3.29447        -8.73350         0.49064
   C       -2.93975        -9.95631         0.96305
   S       -2.05510       -11.04451        -0.03871
   C       -2.08796       -12.19758         1.27516
   N       -1.46105       -13.43889         1.09309
   O       -1.50300       -14.23682         2.01218
   O       -0.91686       -13.63101         0.02162
   C       -2.73789       -11.76142         2.39392
   C       -3.24816       -10.45192         2.24349
   C       -3.96546        -9.71047         3.22499
   C       -4.45490       -10.22228         4.39134
   C       -5.17889        -9.51335         5.36768
   C       -5.21199        -8.15071         5.57817
   C       -4.36727        -7.11971         5.10767
   C       -4.68153        -5.87648         5.57767
   C       -5.79780        -5.84960         6.43551
   S       -6.41699        -7.46837         6.66301
   C       -6.37425        -4.74635         7.04676
   C       -5.94864        -3.40330         6.98400
   C       -6.73338        -2.54521         7.69554
   C       -7.83187        -3.15505         8.34780
   S       -7.80752        -4.88328         8.03283
   C       -8.77946        -2.49475         9.09116
   C       -9.92658        -3.01410         9.72015
   C      -10.85684        -2.17850        10.43564
   C      -11.89108        -2.95713        10.90751
   C      -13.04915        -2.62922        11.64856
   C      -13.91409        -3.64283        11.95470
   C      -15.15535        -3.65629        12.66461
   C      -15.64530        -4.94904        12.68521
   C      -14.71714        -5.78637        11.98805
   C      -13.65806        -5.01218        11.53709
   C      -12.50531        -5.34389        10.80860
   C      -11.62954        -4.32675        10.49550
   C      -10.41242        -4.32496         9.77266
   C      -16.88206        -5.35754        13.30654
   C      -17.37622        -6.59270        13.30782
   H        1.81259        -1.79421        -8.62482
   H        1.72594        -0.45990        -3.85252
   H        0.59145        -3.83887        -8.10030
   H        0.48945        -2.55364        -3.28394
   H       -1.64448        -8.11362        -5.26253
   H       -3.83302        -8.10637         1.07525
   H       -2.82621       -12.35707         3.28370
   H       -4.18308        -8.67747         2.99354
   H       -4.36021       -11.28559         4.56192
   H       -5.78978       -10.10907         6.03319
   H       -3.51061        -7.31981         4.49052
   H       -4.13413        -4.98532         5.32740
   H       -5.07901        -3.10573         6.42668
   H       -6.56071        -1.48564         7.76772
   H       -8.63214        -1.42528         9.18689
   H      -10.74480        -1.11653        10.56427
   H      -13.23346        -1.60800        11.95118
   H      -15.62283        -2.79453        13.10474
   H      -14.82609        -6.84479        11.83917
   H      -12.31921        -6.36343        10.50271
   H       -9.95707        -5.19543         9.34139
   H      -17.42693        -4.56271        13.80063
   H      -16.87338        -7.41455        12.82753
   H      -18.30892        -6.82447        13.79186
*
