# ORCA input file
# SCF done       -157.696100546747          0.000604985901
! CAM-B3LYP def2-SVP def2/J RIJCOSX Grid4 TightSCF
%maxcore 5000
%tddft
    Mode sTDDFT
    Ethresh 5.0
    maxcore 5000
end

%pal
  nprocs 6
  end
* xyz 0 1
   C       -9.54502       -11.64127        -0.93562
   C       -8.91600       -11.68834         0.24519
   C       -9.46502       -12.05275         1.52117
   C       -8.58541       -12.00817         2.54391
   C       -7.27034       -11.60601         2.17057
   S       -7.20257       -11.28696         0.44605
   C       -6.17852       -11.46906         2.98722
   C       -6.09042       -11.69812         4.38558
   C       -4.86203       -11.47879         4.91604
   C       -3.88621       -11.05601         3.97216
   S       -4.61838       -10.95513         2.36485
   C       -2.57907       -10.76476         4.20487
   N       -1.73556       -10.36333         3.21458
   C       -0.42757       -10.05263         3.33635
   S        0.34776       -10.02184         4.89109
   C        1.80682        -9.45260         4.13621
   N        2.90869        -9.23409         4.95434
   O        3.93799        -8.83441         4.43371
   O        2.76037        -9.46009         6.14783
   C        1.68482        -9.29307         2.77915
   C        0.41956        -9.65379         2.29178
   C        0.09662        -9.60028         0.88116
   C       -0.79197       -10.36561         0.22983
   C       -1.10124       -10.29820        -1.18339
   C       -0.28454       -10.00676        -2.20203
   C        1.18424        -9.74399        -2.09279
   C       -0.80743       -10.01913        -3.61489
   N       -0.33497       -11.21509        -4.28270
   C       -0.33363       -11.40642        -5.61723
   C       -0.68009       -10.49523        -6.55867
   C       -0.59669       -10.74069        -7.95568
   S       -1.02990        -9.48619        -9.07848
   C       -0.66098       -10.48698       -10.46205
   C       -0.23822       -11.74779       -10.02865
   C       -0.20467       -11.87967        -8.63368
   C        0.07844       -12.84273       -10.85340
   N        0.32260       -13.79730       -11.44089
   C       -0.80827        -9.95631       -11.75680
   C       -0.40894       -10.55152       -12.91937
   C       -0.61708        -9.92290       -14.16071
   C       -0.18335       -10.40285       -15.36966
   C       -0.42160        -9.81893       -16.67192
   C       -1.09740        -8.65591       -16.95040
   C       -1.29272        -8.14440       -18.24942
   N       -1.48646        -7.67156       -19.27799
   C       -1.68629        -7.79778       -15.99991
   N       -2.19243        -7.04286       -15.29660
   C        0.19292       -10.69108       -17.66957
   C        0.81847       -11.77330       -17.00543
   C        0.62682       -11.63082       -15.54645
   O        1.07307       -12.36532       -14.69168
   C        1.48845       -12.76838       -17.67308
   C        1.54160       -12.69545       -19.06901
   C        0.91225       -11.61205       -19.72570
   C        0.23677       -10.60395       -19.04890
   S        1.09835       -11.71587       -21.45121
   C        2.00598       -13.19327       -21.26731
   C        2.16353       -13.59024       -19.98266
  Br        2.66114       -14.07165       -22.78985
   H      -10.58764       -11.89431        -1.01172
   H       -9.03687       -11.35327        -1.83757
   H      -10.49981       -12.33197         1.61052
   H       -8.82747       -12.24847         3.56399
   H       -6.94424       -12.01999         4.95378
   H       -4.61200       -11.60191         5.95445
   H       -2.15913       -10.85528         5.19507
   H       -2.14973       -10.22534         2.29798
   H        2.49863        -8.94846         2.16696
   H        0.66234        -8.86362         0.33074
   H       -1.35951       -11.11968         0.76145
   H       -2.12847       -10.55588        -1.41672
   H        1.60703       -10.22533        -1.21462
   H        1.37755        -8.67318        -2.02649
   H        1.69267       -10.11402        -2.98150
   H       -0.42362        -9.14895        -4.15595
   H       -1.90485        -9.97832        -3.62539
   H       -0.20364       -12.01848        -3.68934
   H        0.01298       -12.38404        -5.92098
   H       -1.03931        -9.51942        -6.27103
   H        0.09630       -12.79137        -8.14997
   H       -1.25704        -8.97052       -11.80898
   H        0.08498       -11.51103       -12.90431
   H       -1.17111        -8.99276       -14.14219
   H        1.95478       -13.57827       -17.13435
   H       -0.22509        -9.80039       -19.59749
   H        2.69555       -14.47647       -19.68845
*
