# ORCA input file
# SCF done       -185.781569648812          0.000644050648
! CAM-B3LYP def2-SVP def2/J RIJCOSX Grid4 TightSCF
%maxcore 5000
%tddft
    Mode sTDDFT
    Ethresh 5.0
    maxcore 5000
end

%pal
  nprocs 6
  end
* xyz 0 1
   C       -2.20618         4.45342       -15.91642
   C       -2.21620         4.43401       -14.57775
   C       -2.96472         5.28216       -13.69251
   C       -2.76828         5.03097       -12.38134
   C       -1.85435         3.96758       -12.11866
   S       -1.25246         3.29820       -13.61747
   C       -1.46655         3.49408       -10.88931
   C       -1.87352         3.95132        -9.61030
   C       -1.31258         3.27159        -8.57879
   C       -0.42800         2.23067        -8.97477
   S       -0.33266         2.16111       -10.72091
   C        0.23681         1.39458        -8.11675
   C        1.10249         0.33998        -8.44476
   C        1.72445        -0.50243        -7.51163
   C        1.70914        -0.22379        -6.14952
   N        1.76796         0.08814        -5.04276
   C        2.51991        -1.50335        -8.12676
   C        2.54691        -1.35452        -9.50824
   S        1.54160        -0.07855       -10.08931
   S        3.62083        -2.43421       -10.33647
   C        4.03058        -3.12087        -8.79976
   C        3.35228        -2.57933        -7.71696
   C        3.68949        -3.24318        -6.50265
   C        3.07799        -3.02637        -5.25673
   N        2.57072        -2.90051        -4.23630
   C        4.65064        -4.20815        -6.69064
   S        5.14710        -4.35750        -8.37139
   N        5.22352        -5.01687        -5.71482
   C        6.58925        -5.16822        -5.71594
   S        7.31852        -6.74071        -5.70766
   C        8.88031        -6.00632        -5.86895
   N       10.00823        -6.83802        -5.88978
   O       11.09405        -6.30693        -6.02598
   O        9.81327        -8.03374        -5.76951
   C        8.82971        -4.64047        -5.93553
   C        7.52052        -4.13416        -5.81683
   C        7.24017        -2.71883        -5.73743
   C        6.20990        -2.17929        -5.05921
   C        5.88436        -0.78976        -4.98191
   S        4.55884        -0.28236        -3.99731
   C        4.77090         1.36943        -4.45494
   C        3.91455         2.47052        -3.94152
   O        4.33076         3.59932        -3.89869
   O        2.69682         2.14604        -3.53595
   C        5.83398         1.52886        -5.30677
   C        6.45719         0.30962        -5.61699
   O        7.46935         0.10760        -6.50650
   C        8.29232         1.05224        -6.92539
   C        9.19497         0.78602        -7.90602
   C       10.36700         1.65961        -8.15067
   O       10.53233         2.78712        -7.74885
   C       11.29999         0.82586        -8.94011
   C       12.56706         1.11800        -9.35459
   C       13.30115         0.14179       -10.06628
   C       12.70620        -1.12555       -10.33507
   C       13.44906        -2.09857       -11.03356
   C       14.72171        -1.82494       -11.44999
   C       15.30787        -0.57000       -11.18739
   C       14.61375         0.39345       -10.50997
   F       16.55556        -0.32876       -11.60867
   F       15.42577        -2.74814       -12.11547
   C       11.38741        -1.39656        -9.90531
   C       10.69441        -0.43377        -9.22043
   C        9.33700        -0.42458        -8.68978
   C        8.34023        -1.31346        -8.99698
   C        6.97911        -1.10102        -8.70076
   N        5.85001        -0.95694        -8.54691
   C        8.52840        -2.51419        -9.71106
   N        8.61151        -3.52698       -10.24517
   H       -2.80671         5.16150       -16.45987
   H       -1.60430         3.77076       -16.48790
   H       -3.61678         6.04267       -14.08380
   H       -3.24612         5.56779       -11.58142
   H       -2.56537         4.76546        -9.49219
   H       -1.49824         3.47363        -7.53896
   H        0.07232         1.54976        -7.05748
   H        4.68403        -5.81529        -5.40238
   H        9.71177        -4.03262        -6.02674
   H        7.96765        -2.08242        -6.21674
   H        5.55224        -2.82351        -4.49204
   H        2.38698         1.25618        -3.82885
   H        6.10865         2.48828        -5.70633
   H        8.30911         2.01617        -6.42697
   H       13.00617         2.08021        -9.13968
   H       13.01520        -3.06393       -11.24266
   H       15.07779         1.34775       -10.31595
   H       10.95963        -2.36394       -10.11759
*
