# ORCA input file
# SCF done       -184.247375382211          0.000752383246
! CAM-B3LYP def2-SVP def2/J RIJCOSX Grid4 TightSCF
%maxcore 5000
%tddft
    Mode sTDDFT
    Ethresh 5.0
    maxcore 5000
end

%pal
  nprocs 6
  end
* xyz 0 1
   C        6.81944       -15.69480       -11.47512
   C        5.91671       -15.87533       -10.50273
   C        4.79833       -16.77761       -10.50111
   C        4.06142       -16.74651        -9.37145
   C        4.53245       -15.82238        -8.39089
   S        5.95291       -14.98741        -8.96933
   C        3.99229       -15.58015        -7.15131
   C        2.85946       -16.18972        -6.55519
   C        2.58563       -15.73240        -5.30839
   C        3.48551       -14.73193        -4.83616
   S        4.69559       -14.40148        -6.05285
   C        3.35958       -14.10290        -3.62748
   C        4.16596       -13.10739        -3.03340
   O        3.61796       -12.47195        -1.95933
   C        4.48185       -11.54201        -1.50607
   C        5.61940       -11.56237        -2.26409
   C        5.43684       -12.57829        -3.25847
   C        6.44719       -12.95100        -4.15170
   N        7.33633       -13.22404        -4.82360
   C        6.84797       -10.72934        -2.16434
   F        6.72508        -9.71907        -1.28299
   F        7.92271       -11.43223        -1.78760
   F        7.15679       -10.15167        -3.33775
   C        4.07553       -10.74761        -0.31508
   C        4.10208       -11.68440         0.90863
   O        5.07331       -12.14172         1.42526
   O        2.85772       -11.93324         1.31767
   C        1.87992       -11.26630         0.53307
   C        2.61976       -10.26155        -0.37762
   C        2.47925        -8.82173         0.12066
   C        2.57618        -8.77353         1.64035
   C        1.35015        -9.42378         2.28880
   C        0.84607       -10.63354         1.47212
   O       -0.23709       -10.18009         0.67166
   C       -0.65458        -8.95738         1.04908
   O       -1.49356        -8.35066         0.45440
   C        0.09588        -8.52387         2.29971
   C        0.27083        -7.03777         2.35286
   C        0.99075        -6.39563         3.27032
   C        1.18246        -4.96444         3.31078
   C        1.22452        -4.09697         2.24322
   C        1.02416        -4.31351         0.78756
   N        1.57011        -2.85807         2.72085
   C        1.78271        -2.89238         4.05025
   C        2.14679        -1.68841         4.83570
   C        1.52979        -4.19921         4.48199
   C        1.66576        -4.59830         5.83204
   C        1.03371        -5.60823         6.50194
   C        1.35880        -6.04772         7.84555
   C        2.47294        -5.71099         8.57229
   C        2.74467        -6.18821         9.87105
   N        3.01963        -6.53760        10.92990
   C        3.50685        -4.85746         8.13526
   N        4.39382        -4.18259         7.85523
   C        0.31860        -6.97475         8.27603
   C       -0.61887        -7.12230         7.22589
   C       -0.21925        -6.27229         6.08223
   O       -0.85883        -6.10085         5.06567
   C       -1.72745        -7.92582         7.33056
   C       -1.91780        -8.62391         8.52797
   C       -0.97567        -8.47009         9.57218
   C        0.14341        -7.65379         9.46781
   S       -1.40751        -9.41315        10.96720
   C       -2.82694        -9.99406        10.13854
   C       -2.97262        -9.50893         8.88277
  Br       -3.98434       -11.18598        11.00989
   H        6.76247       -16.25681       -12.39087
   H        7.62649       -14.99273       -11.37249
   H        4.60146       -17.40911       -11.34924
   H        3.19090       -17.35311        -9.19602
   H        2.28529       -16.94382        -7.06256
   H        1.76858       -16.07491        -4.69855
   H        2.48964       -14.35981        -3.03697
   H        4.78835        -9.93874        -0.15678
   H        1.35991       -12.02292        -0.06832
   H        2.23151       -10.33358        -1.39499
   H        1.51963        -8.41269        -0.20113
   H        3.26267        -8.21014        -0.32997
   H        2.65469        -7.74040         1.97889
   H        3.47692        -9.29683         1.96804
   H        1.61055        -9.73968         3.30001
   H        0.47342       -11.42330         2.13838
   H       -0.54338        -8.82612         3.14157
   H       -0.30499        -6.49597         1.61939
   H        1.49762        -6.95183         4.05030
   H       -0.03143        -4.24957         0.52212
   H        1.38271        -5.30009         0.50227
   H        1.56571        -3.56181         0.21534
   H        1.65495        -2.03415         2.14544
   H        2.44057        -0.87619         4.17449
   H        2.97390        -1.90907         5.50930
   H        1.30563        -1.35195         5.44259
   H        2.35068        -3.98473         6.40573
   H       -2.42842        -8.01093         6.51481
   H        0.82713        -7.56340        10.29507
   H       -3.79094        -9.76122         8.23338
*
