# ORCA input file
# SCF done       -208.164542499030          0.000681266745
! CAM-B3LYP def2-SVP def2/J RIJCOSX Grid4 TightSCF
%maxcore 5000
%tddft
    Mode sTDDFT
    Ethresh 5.0
    maxcore 5000
end

%pal
  nprocs 6
  end
* xyz 0 1
   C       -0.07711        -3.76103         8.74578
   C        0.70510        -2.93398         9.53340
   C        0.48150        -1.55657         9.47498
   C        1.27807        -0.68823        10.26170
   N        1.92787         0.00939        10.89558
   C       -0.51722        -1.01349         8.64436
   C       -0.72127         0.38645         8.60488
   N       -0.90357         1.51604         8.55550
   C       -1.30256        -1.85306         7.85207
   C       -1.06695        -3.20945         7.91226
   C       -1.74196        -4.29005         7.15137
   O       -2.66455        -4.13197         6.37989
   C       -1.02177        -5.52619         7.51148
   C       -0.08781        -5.21283         8.57383
   C        0.58301        -6.11005         9.36316
   C        1.44865        -5.74038        10.41404
   N        2.16061        -5.49105        11.27877
   C        0.44498        -7.51269         9.27825
   N        0.34889        -8.65648         9.28890
   C       -1.04291        -6.73108         6.84861
   C       -1.92736        -7.20878         5.87224
   C       -3.20698        -6.80050         5.49155
   C       -3.77613        -7.58524         4.50646
   C       -2.90435        -8.62143         4.10168
   S       -1.43075        -8.63577         4.96751
   C       -3.38138        -9.45344         3.07098
   C       -4.68415        -9.16540         2.61440
  Si       -5.37583        -7.67974         3.52953
   C       -6.85928        -8.08470         4.59503
   C       -5.63417        -6.19975         2.41470
   C       -5.05593       -10.03545         1.60304
   C       -4.06850       -10.95791         1.26014
   S       -2.63146       -10.75246         2.22838
   C       -4.12832       -11.94232         0.24242
   C       -2.98537       -12.69778        -0.11153
   C       -2.98908       -13.63866        -1.19970
   N       -1.86030       -14.27921        -1.51926
   C       -0.76277       -14.06384        -0.83516
   C       -0.76670       -13.14944         0.26646
   N       -1.86123       -12.50197         0.58522
   C        0.41140       -12.92678         1.02173
   N        1.37921       -12.76043         1.61076
   C        0.42427       -14.74101        -1.20964
   N        1.39730       -15.26993        -1.50067
   C       -4.14822       -13.91660        -1.96247
   C       -5.30978       -13.20543        -1.57463
   C       -5.29556       -12.22770        -0.50707
   N       -6.49512       -11.67189        -0.33810
   S       -7.52874       -12.30123        -1.39168
   N       -6.51872       -13.30919        -2.12597
   C       -4.10763       -14.82743        -3.04689
   C       -5.17424       -15.25669        -3.83546
   C       -4.80779       -16.12585        -4.84963
   C       -3.41628       -16.35378        -4.83615
   S       -2.59777       -15.53317        -3.56588
   C       -2.93350       -17.19533        -5.85461
   C       -3.89806       -17.70331        -6.74855
  Si       -5.60253       -17.09893        -6.24259
   C       -6.70419       -18.48220        -5.63332
   C       -6.40442       -16.01385        -7.53961
   C       -3.30476       -18.47194        -7.73410
   C       -1.92056       -18.59581        -7.60963
   S       -1.33639       -17.68681        -6.22831
   C       -1.07593       -19.24005        -8.52904
   C        0.25526       -19.54002        -8.43499
   C        1.05009       -19.71392        -9.67399
   O        0.63401       -19.85666       -10.80022
   C        2.46460       -19.60777        -9.23852
   C        3.60377       -19.56746       -10.01312
   C        4.83290       -19.41472        -9.36796
   C        4.88879       -19.30224        -7.96546
   C        3.72951       -19.35898        -7.18842
   C        2.51600       -19.51704        -7.83326
   C        1.15420       -19.63723        -7.30979
   C        0.83165       -20.06887        -6.04953
   C       -0.47186       -20.47239        -5.69240
   N       -1.51162       -20.85760        -5.39595
   C        1.77841       -20.27635        -5.02576
   N        2.51812       -20.45376        -4.16701
   C        6.14516       -19.12351        -7.33501
   N        7.15759       -18.97572        -6.82147
   C        6.02535       -19.36380       -10.12911
   N        6.97712       -19.32462       -10.76478
   H        1.48207        -3.31476        10.17704
   H       -2.06911        -1.45161         7.20670
   H       -0.23116        -7.41324         7.07628
   H       -3.69194        -5.95324         5.93793
   H       -6.68567        -8.94556         5.23825
   H       -7.73707        -8.30837         3.99212
   H       -7.12452        -7.25105         5.24210
   H       -4.76966        -6.00317         1.78293
   H       -5.81823        -5.29498         2.99047
   H       -6.48872        -6.33529         1.75473
   H       -6.00602       -10.01979         1.10197
   H       -6.17804       -14.92263        -3.64860
   H       -6.19848       -19.12189        -4.91207
   H       -7.03425       -19.12208        -6.44931
   H       -7.60054       -18.09956        -5.14912
   H       -5.74246       -15.22221        -7.88615
   H       -7.30331       -15.53377        -7.15833
   H       -6.70127       -16.58774        -8.41513
   H       -3.84431       -18.95829        -8.52744
   H       -1.51745       -19.43766        -9.50182
   H        3.54757       -19.64861       -11.08802
   H        3.80335       -19.26474        -6.11625
*
