# ORCA input file
# SCF done       -240.743947018778          0.000448051250
! CAM-B3LYP def2-SVP def2/J RIJCOSX Grid4 TightSCF
%maxcore 5000
%tddft
    Mode sTDDFT
    Ethresh 5.0
    maxcore 5000
end

%pal
  nprocs 6
  end
* xyz 0 1
   C        3.33147         2.41604        -1.10162
   C        4.57803         3.19313        -1.53196
   C        5.85056         2.68780        -1.29314
   C        6.96822         3.38767        -1.71002
   C        6.83035         4.59713        -2.36987
   C        5.56607         5.10802        -2.60005
   C        4.44417         4.41113        -2.18498
   C        3.21496         2.22786         0.40122
   C        2.24991         1.34934         0.88350
   C        2.10227         1.15697         2.24439
   C        2.91280         1.84236         3.13362
   C        3.85789         2.73314         2.65703
   C        4.00644         2.93391         1.29534
   C        3.29064         1.12501        -1.90277
   C        2.29684         1.25555        -2.84273
   C        1.61917         2.50569        -2.59767
   C        0.55802         3.04397        -3.27374
   C       -0.05359         2.40968        -4.37058
   N       -0.58503         1.93557        -5.26947
   C        0.03303         4.29763        -2.89838
   N       -0.38225         5.32419        -2.60114
   O        2.16705         3.12527        -1.54325
   C        1.93675         0.31204        -3.81590
   N        1.67203        -0.49713        -4.58438
   C        4.14359         0.01841        -1.68468
   C        4.78524        -0.32489        -0.50088
   C        5.52808        -1.49043        -0.63090
   C        5.47377        -2.03582        -1.93187
   S        4.47542        -1.13500        -2.97674
   C        6.27872        -3.19918        -1.96835
   C        6.82987        -3.39705        -0.68322
   C        6.37423        -2.33349         0.19669
   C        6.67402        -2.15320         1.51537
   C        7.51078        -3.04083         2.22500
   N        8.19256        -3.75712         2.80484
   C        6.16503        -1.05945         2.24789
   N        5.75017        -0.16510         2.83362
   C        7.64852        -4.51531        -0.61732
   C        7.73984        -5.16568        -1.84348
   S        6.78910        -4.38057        -3.09150
   C        8.51023        -6.32348        -2.13396
   C        8.60348        -6.83888        -3.44540
   C        9.41149        -7.97543        -3.77098
   N        9.46524        -8.40161        -5.04874
   C        8.78770        -7.78475        -5.96191
   C        7.98539        -6.65689        -5.63871
   N        7.91270        -6.21974        -4.42340
   F        7.29154        -6.02039        -6.57250
   F        8.86444        -8.23557        -7.20653
   C       10.16159        -8.67711        -2.80202
   C       10.05119        -8.18599        -1.47916
   C        9.24760        -7.02873        -1.15312
   N        9.30623        -6.74784         0.14989
   S       10.25546        -7.80665         0.88562
   N       10.65127        -8.68171        -0.39552
   C       10.97691        -9.78630        -3.15315
   C       11.71027       -10.58602        -2.28285
   C       12.42427       -11.56630        -2.95640
   C       12.24237       -11.50994        -4.35628
   S       11.17102       -10.26582        -4.82949
   C       13.02954       -12.52534        -4.94728
   C       13.69927       -13.23172        -3.92291
   C       13.33946       -12.64997        -2.64043
   C       13.78098       -13.03756        -1.40937
   C       14.68492       -14.10891        -1.24844
   N       15.42184       -14.97858        -1.12338
   C       13.36784       -12.39213        -0.22422
   N       13.03635       -11.87197         0.74206
   C       14.50961       -14.24678        -4.40588
   C       14.48630       -14.31847        -5.79532
   S       13.41507       -13.10523        -6.50154
   C       15.22886       -15.20329        -6.60467
   C       15.33204       -15.23269        -7.97637
   C       16.29922       -16.24393        -8.32763
   C       16.72535       -16.61446        -9.57532
   C       16.23452       -16.03178       -10.75771
   N       15.86821       -15.58720       -11.74956
   C       17.70191       -17.61974        -9.72851
   N       18.49796       -18.43512        -9.85592
   O       16.79249       -16.81285        -7.22238
   C       16.14705       -16.27553        -6.05151
   C       15.43106       -17.44888        -5.39832
   C       16.19694       -18.57635        -5.11803
   C       15.60952       -19.69581        -4.56043
   C       14.25260       -19.70150        -4.28101
   C       13.48700       -18.58746        -4.57310
   C       14.06969       -17.46408        -5.13737
   C       17.21390       -15.65307        -5.15617
   C       18.09309       -14.73622        -5.71911
   C       19.06223       -14.13040        -4.94049
   C       19.15316       -14.42628        -3.59108
   C       18.27807       -15.33765        -3.02644
   C       17.31363       -15.95429        -3.80446
   C       14.65498       -14.40938        -8.88679
   N       14.08016       -13.71103        -9.59253
   H        5.97740         1.75223        -0.77147
   H        7.95034         2.98348        -1.51561
   H        7.70439         5.13913        -2.69722
   H        5.44437         6.05454        -3.10410
   H        3.46447         4.82958        -2.35757
   H        1.61778         0.80942         0.19162
   H        1.35419         0.46894         2.60817
   H        2.80513         1.68422         4.19537
   H        4.48601         3.27652         3.34559
   H        4.74043         3.63640         0.93134
   H        4.67005         0.23210         0.41134
   H        8.16953        -4.86642         0.25424
   H       11.70169       -10.42831        -1.22014
   H       15.10178       -14.90331        -3.79718
   H       17.25161       -18.56722        -5.34767
   H       16.21243       -20.56488        -4.34622
   H       13.79240       -20.57478        -3.84439
   H       12.42657       -18.58868        -4.37028
   H       13.45063       -16.61112        -5.37079
   H       18.02858       -14.49743        -6.77151
   H       19.74346       -13.42428        -5.39068
   H       19.90615       -13.94898        -2.98248
   H       18.33671       -15.57344        -1.97545
   H       16.64329       -16.66812        -3.34957
*
