# ORCA input file
# SCF done       -183.698690661432          0.000654332856
! CAM-B3LYP def2-SVP def2/J RIJCOSX Grid4 TightSCF
%maxcore 5000
%tddft
    Mode sTDDFT
    Ethresh 5.0
    maxcore 5000
end

%pal
  nprocs 6
  end
* xyz 0 1
   C       -1.64413        -0.25397         5.28307
   C       -0.43236         0.33650         4.91972
   N        0.10040         1.30885         5.82823
   O       -0.65858         1.79290         6.64126
   O        1.28144         1.59863         5.74884
   C        0.19806        -0.01385         3.71583
   C        1.51355         0.57650         3.24953
   O        2.61050         0.05133         3.94619
   C       -0.41978        -0.96240         2.91824
   C       -1.62699        -1.57458         3.27319
   C       -2.23199        -1.19838         4.48030
   C       -2.23639        -2.56619         2.42442
   C       -1.79257        -3.03969         1.20563
   C       -2.64696        -4.00353         0.66820
   C       -3.75639        -4.26887         1.49068
   S       -3.74320        -3.33379         2.91281
   C       -4.56386        -5.25481         0.86988
   C       -3.95733        -5.61255        -0.35259
   C       -2.73572        -4.83772        -0.51761
   C       -1.86351        -4.88435        -1.56499
   C       -2.06118        -5.74504        -2.66550
   N       -2.22425        -6.44508        -3.55838
   C       -0.71173        -4.07080        -1.61438
   N        0.22056        -3.40458        -1.65132
   C       -4.67480        -6.57851        -1.04595
   C       -5.82034        -6.95424        -0.35498
   S       -6.01474        -6.10417         1.17140
   C       -6.79477        -7.89520        -0.72731
   C       -7.92360        -8.22012         0.03207
   C       -8.75257        -9.21291        -0.58724
   N       -9.87046        -9.64406        -0.00540
   C      -10.17487        -9.11597         1.16188
   C      -11.41911        -9.59491         1.81247
   O      -12.13882       -10.43191         1.30840
   C      -11.71664        -8.97895         3.11650
   C      -10.94393        -8.05267         3.69396
   C       -9.70106        -7.53640         3.09630
   O       -9.01827        -6.69342         3.63985
   C       -9.34663        -8.12374         1.78063
   N       -8.24027        -7.69101         1.21297
   C       -8.25914        -9.64833        -1.82187
   S       -6.77479        -8.82366        -2.19826
   C       -8.87595       -10.61058        -2.63835
   C       -8.45587       -11.09450        -3.87124
   C       -9.33807       -12.04285        -4.37224
   C      -10.43216       -12.27798        -3.51334
   S      -10.38051       -11.33641        -2.08963
   C      -11.26363       -13.25521        -4.11693
   C      -10.70144       -13.63646        -5.34696
   C       -9.47352       -12.88762        -5.55037
   C       -8.62749       -12.95844        -6.61776
   C       -8.87045       -13.82258        -7.70620
   N       -9.07308       -14.52741        -8.58729
   C       -7.45877       -12.17211        -6.69986
   N       -6.51012       -11.53177        -6.76450
   C      -11.45920       -14.60230        -6.01322
   C      -12.59015       -14.95930        -5.30843
   S      -12.71637       -14.08092        -3.78923
   C      -13.60178       -15.92096        -5.67423
   C      -13.49236       -16.67777        -6.84748
   C      -14.46610       -17.59612        -7.17167
   C      -15.55547       -17.79255        -6.33133
   C      -15.70681       -17.03630        -5.16617
   C      -14.72798       -16.10706        -4.86482
   C      -16.95954       -17.14067        -4.32820
   O      -18.11032       -16.85412        -5.08902
   N      -16.50149       -18.82056        -6.70634
   O      -16.78261       -18.89549        -7.88129
   O      -16.89775       -19.56459        -5.84023
   H       -2.10101         0.04483         6.21438
   H        1.48145         1.67173         3.33433
   H        1.66812         0.31364         2.20011
   H        2.62611         0.46674         4.82212
   H        0.06182        -1.23475         1.99320
   H       -3.16335        -1.65388         4.78075
   H       -0.89197        -2.70415         0.72626
   H       -4.40508        -7.00172        -1.99698
   H      -12.62283        -9.33036         3.59122
   H      -11.20067        -7.62538         4.65390
   H       -7.55507       -10.75648        -4.35149
   H      -11.19444       -15.01715        -6.96778
   H      -12.64710       -16.55038        -7.50292
   H      -14.39240       -18.18322        -8.07456
   H      -14.83882       -15.50629        -3.97311
   H      -16.88007       -16.47039        -3.46225
   H      -17.09514       -18.16483        -3.97167
   H      -18.08689       -15.93485        -5.37797
*
