# ORCA input file
# SCF done       -161.085293557526          0.000837565121
! CAM-B3LYP def2-SVP def2/J RIJCOSX Grid4 TightSCF
%maxcore 5000
%tddft
    Mode sTDDFT
    Ethresh 5.0
    maxcore 5000
end

%pal
  nprocs 6
  end
* xyz 0 1
   C       -2.82908         1.24924        -0.62230
   C       -3.68399         0.86048         0.36288
   F       -4.48989         1.69922         1.01809
   C       -3.63306        -0.52608         0.62465
   F       -4.38560        -1.13158         1.55248
   C       -2.73026        -1.19847        -0.16890
   S       -1.94563        -0.08068        -1.24643
   C       -2.41849        -2.58784        -0.17344
   C       -1.49649        -3.22621        -0.98026
   C       -1.44107        -4.59607        -0.72111
   C       -2.33011        -4.99190         0.29458
   S       -3.23119        -3.68744         0.92645
   C       -2.19880        -6.38672         0.49047
   C       -1.22720        -6.88106        -0.40325
   C       -0.69976        -5.76230        -1.17406
   C        0.31698        -5.78569        -2.08099
   C        1.06971        -6.94671        -2.36671
   N        1.73027        -7.85679        -2.58550
   C        0.73106        -4.62013        -2.76166
   N        1.06398        -3.67413        -3.31722
   C       -1.04719        -8.25611        -0.30947
   C       -1.86263        -8.81264         0.66931
   S       -2.86840        -7.61118         1.47122
   C       -1.92393       -10.16777         1.04391
   C       -1.30196       -11.25365         0.41144
   C       -1.54894       -12.50819         1.07218
   N       -1.05873       -13.65108         0.58624
   C       -0.35445       -13.57770        -0.52103
   C        0.16029       -14.85491        -1.08091
   O       -0.17055       -15.93722        -0.65039
   C        1.08800       -14.70112        -2.21682
   C        1.31500       -13.53648        -2.83208
   C        0.66412       -12.27086        -2.44598
   O        0.73915       -11.26668        -3.11853
   C       -0.11025       -12.33119        -1.17853
   N       -0.57639       -11.19593        -0.70799
   C       -2.36125       -12.38052         2.20791
   S       -2.82236       -10.72104         2.42204
   C       -2.77295       -13.40486         3.08057
   C       -2.31548       -14.71756         3.09611
   C       -2.92351       -15.45902         4.10210
   C       -3.86671       -14.71899         4.84292
   S       -3.97837       -13.09698         4.32562
   C       -4.45409       -15.56996         5.80747
   C       -3.88403       -16.84992         5.68779
   C       -2.88302       -16.81636         4.63316
   C       -2.03945       -17.82011         4.26387
   C       -2.09253       -19.10330         4.85175
   N       -2.12514       -20.14924         5.31904
   C       -1.00989       -17.64601         3.31158
   N       -0.13531       -17.52088         2.58208
   C       -4.40510       -17.76401         6.60641
   C       -5.36580       -17.18730         7.41468
   S       -5.62893       -15.49130         7.04363
   C       -6.11888       -17.80256         8.45746
   C       -6.06003       -19.10416         8.90704
   F       -5.24041       -20.02966         8.40041
   C       -6.95749       -19.37024         9.96539
   F       -7.06379       -20.56562        10.54895
   C       -7.69875       -18.28793        10.32712
   S       -7.30640       -16.92073         9.37268
   H       -2.67840         2.23760        -1.00482
   H       -0.90780        -2.70367        -1.71246
   H       -0.37955        -8.85652        -0.90136
   H        1.55627       -15.61684        -2.55142
   H        1.97482       -13.46871        -3.68641
   H       -1.58535       -15.07254         2.39088
   H       -4.10834       -18.79350         6.68535
   H       -8.44280       -18.22916        11.09429
*
