# ORCA input file
# SCF done       -209.300577493366          0.000615339865
! CAM-B3LYP def2-SVP def2/J RIJCOSX Grid4 TightSCF
%maxcore 5000
%tddft
    Mode sTDDFT
    Ethresh 5.0
    maxcore 5000
end

%pal
  nprocs 6
  end
* xyz 0 1
   C       -0.65519         3.95587         5.42662
   C       -1.48563         3.25196         6.25615
   C       -1.22179         1.90516         6.54540
   C       -0.13224         1.28099         6.00136
   C        0.74294         1.97569         5.14246
   C        1.86669         1.33305         4.57211
   C        2.69706         2.03963         3.74566
   C        2.43483         3.41396         3.47367
   C        1.35242         4.05591         4.00065
   C        0.47578         3.34431         4.85141
   C        3.49902         3.94654         2.60304
   O        3.58780         5.05575         2.12562
   C        4.49106         2.84388         2.47732
   C        3.89391         1.64278         3.00806
   C        4.22584         0.34974         2.68404
   C        5.22765         0.00807         1.75598
   N        6.01332        -0.31950         0.98511
   C        3.55201        -0.78233         3.18146
   N        3.05973        -1.73952         3.58209
   C        5.73915         3.13952         2.00454
   C        6.94651         2.43441         2.15639
   C        7.29007         1.42480         3.05349
   C        8.60485         1.00425         2.95691
   C        9.29439         1.71014         1.95060
   S        8.32499         2.88993         1.17594
   C       10.64188         1.34448         1.76224
   C       11.10815         0.31115         2.59894
  Si        9.72825        -0.29493         3.71482
   C       10.08517        -0.00973         5.52970
   C        9.15449        -2.02921         3.31645
   C       12.44747         0.04674         2.36711
   C       13.02150         0.84466         1.37941
   S       11.84791         1.95131         0.70043
   C       14.36300         0.86206         0.91714
   C       15.41146         0.08519         1.47313
   C       16.76159         0.16949         0.96601
   N       17.72430        -0.57668         1.51688
   C       17.45352        -1.37888         2.51721
   C       16.11951        -1.45255         3.02711
   N       15.15608        -0.73451         2.50061
   C       15.80823        -2.30575         4.11452
   N       15.56903        -2.99999         4.99398
   C       18.48566        -2.16660         3.08169
   N       19.29049        -2.82487         3.56253
   C       17.14038         1.01210        -0.10771
   C       16.09258         1.78134        -0.66674
   C       14.74622         1.70405        -0.15407
   N       13.92095         2.51545        -0.81245
   S       14.73690         3.29437        -1.95445
   N       16.18075         2.64726        -1.67662
   C       18.48097         1.06527        -0.56173
   C       18.98090         1.80539        -1.63200
   C       20.34375         1.65631        -1.83049
   C       20.89785         0.78235        -0.87293
   S       19.73917         0.15033         0.23043
   C       22.28492         0.56480        -0.98329
   C       22.92910         1.23174        -2.04794
  Si       21.68296         2.26542        -2.99471
   C       21.44775         1.70065        -4.76291
   C       21.99714         4.10489        -2.84390
   C       24.28168         0.93921        -2.08557
   C       24.70118         0.07398        -1.07697
   S       23.35364        -0.37889        -0.03884
   C       25.96515        -0.43111        -0.72684
   C       27.15004        -0.44054        -1.41713
   C       28.38901        -0.95571        -0.86258
   C       28.68218        -1.11896         0.46747
   C       29.91900        -1.59758         0.94601
   N       30.90117        -1.98658         1.39618
   C       27.82945        -0.77551         1.53750
   N       27.20865        -0.48860         2.46038
   C       29.31863        -1.17223        -1.96396
   C       28.71779        -0.68030        -3.15624
   C       29.35368        -0.74072        -4.36218
   C       30.64321        -1.31466        -4.43246
   C       31.34654        -1.41081        -5.64908
   C       32.59225        -1.97582        -5.69453
   C       33.18968        -2.46798        -4.52478
   C       32.53309        -2.38974        -3.32675
   C       31.24879        -1.81489        -3.24408
   C       30.56667        -1.73331        -2.00793
   C       27.37604        -0.14875        -2.85210
   O       26.63009         0.38781        -3.64682
   H       -0.85321         4.99344         5.20034
   H       -2.34965         3.72924         6.69387
   H       -1.88679         1.36373         7.20151
   H        0.07309         0.24292         6.21839
   H        2.04874         0.29753         4.81441
   H        1.16638         5.09522         3.77402
   H        5.81172         4.10280         1.50776
   H        6.60152         1.04702         3.78842
   H       10.39737         1.01230         5.73728
   H       10.88006        -0.66340         5.88308
   H        9.21328        -0.21059         6.14899
   H        8.86026        -2.13185         2.27323
   H        8.29231        -2.31415         3.91646
   H        9.93157        -2.76680         3.50755
   H       13.01375        -0.69838         2.89279
   H       18.33979         2.42543        -2.23099
   H       21.22529         0.63734        -4.83083
   H       22.34184         1.87672        -5.35760
   H       20.63204         2.23055        -5.25068
   H       22.13396         4.41713        -1.81012
   H       21.17110         4.68755        -3.24677
   H       22.89067         4.40345        -3.38829
   H       24.96287         1.32987        -2.81799
   H       25.97764        -0.92011         0.24119
   H       28.87762        -0.35888        -5.25326
   H       30.88140        -1.03033        -6.54689
   H       33.12364        -2.04691        -6.63188
   H       34.17341        -2.90998        -4.57749
   H       32.98917        -2.76624        -2.42285
   H       31.04783        -2.12737        -1.12690
*
