# ORCA input file
# SCF done       -200.605324147850          0.000727679917
! CAM-B3LYP def2-SVP def2/J RIJCOSX Grid4 TightSCF
%maxcore 5000
%tddft
    Mode sTDDFT
    Ethresh 5.0
    maxcore 5000
end

%pal
  nprocs 6
  end
* xyz 0 1
   C       -0.15095         4.06474         0.48128
   C       -0.93937         4.02534         1.59919
   C       -0.66657         3.10958         2.62629
   C        0.38978         2.24599         2.52175
   C        1.22128         2.25808         1.38364
   C        2.30919         1.36207         1.26718
   C        3.09510         1.40281         0.14758
   C        2.82800         2.35379        -0.88041
   C        1.77891         3.22339        -0.79845
   C        0.94514         3.19070         0.34201
   C        3.84797         2.22797        -1.93412
   O        3.92070         2.82250        -2.98487
   C        4.83692         1.23966        -1.40680
   C        4.24725         0.59908        -0.24987
   C        4.53233        -0.65193         0.23339
   C        5.50809        -1.50287        -0.31913
   N        6.28199        -2.23190        -0.75325
   C        3.81286        -1.27053         1.27756
   N        3.25723        -1.82016         2.11769
   C        6.06285         1.18202        -1.99523
   C        7.27212         0.64715        -1.49896
   C        7.62132         0.32302        -0.19587
   C        8.92446        -0.14886        -0.10501
   C        9.58951        -0.17496        -1.34678
   S        8.60982         0.39039        -2.61504
   C       10.90330        -0.67663        -1.14756
   C       11.05190        -0.98440         0.21806
   C        9.81767        -0.66696         0.91675
   C        9.53799        -0.83321         2.24140
   C       10.48495        -1.35491         3.14708
   N       11.26305        -1.77472         3.87731
   C        8.28146        -0.48202         2.77831
   N        7.25924        -0.18321         3.20354
   C       12.31463        -1.48406         0.51137
   C       13.12512        -1.55978        -0.61381
   S       12.30830        -0.99499        -2.06116
   C       14.48317        -1.98798        -0.57870
   C       15.38051        -2.30682        -1.58762
   C       15.00255        -2.37412        -3.00766
   O       14.18154        -1.65434        -3.51933
   O       15.59986        -3.33150        -3.73608
   C       16.67211        -2.66906        -1.08242
   C       16.70741        -2.66549         0.28507
   S       15.21818        -2.21272         0.98869
   C       17.86969        -2.87982        -1.87154
   C       18.90555        -3.73833        -1.58410
   C       19.96918        -3.59298        -2.48336
   C       19.73072        -2.60096        -3.44499
   S       18.20894        -1.85286        -3.25737
   C       20.86523        -2.50727        -4.29321
   C       21.82309        -3.44934        -3.86338
   C       21.29106        -4.15780        -2.70834
   C       21.90136        -5.12600        -1.96802
   C       23.20926        -5.59360        -2.22424
   N       24.27272        -5.98665        -2.39045
   C       21.25895        -5.72216        -0.86136
   N       20.73069        -6.20120         0.03661
   C       22.98450        -3.43319        -4.62638
   C       22.93169        -2.48219        -5.63696
   S       21.39850        -1.59790        -5.62220
   C       23.86744        -2.05423        -6.60266
   C       25.08427        -2.55911        -6.96381
   C       25.96954        -1.91867        -7.92611
   C       25.87640        -0.63622        -8.40218
   C       26.78446        -0.06862        -9.32154
   N       27.47829         0.45321       -10.07253
   C       24.90690         0.31824        -8.02844
   N       24.16959         1.15885        -7.76407
   C       27.04353        -2.85277        -8.23735
   C       26.88010        -4.01319        -7.42976
   C       27.75035        -5.06356        -7.48670
   C       28.84644        -5.00059        -8.37555
   C       29.78077        -6.05000        -8.47622
   C       30.83348        -5.96757        -9.34696
   C       30.99794        -4.83234       -10.15472
   C       30.10813        -3.79540       -10.08125
   C       29.01308        -3.84647        -9.19478
   C       28.09519        -2.77456        -9.11223
   C       25.68039        -3.86867        -6.59017
   O       25.26400        -4.68404        -5.79484
   H       -0.35559         4.76808        -0.31266
   H       -1.77667         4.69986         1.69830
   H       -1.29853         3.09153         3.50152
   H        0.60186         1.53704         3.30842
   H        2.50382         0.67412         2.07508
   H        1.58846         3.93028        -1.59228
   H        6.12554         1.68483        -2.95605
   H        6.96640         0.47247         0.64282
   H       12.64408        -1.78602         1.48989
   H       16.19620        -3.88705        -3.21412
   H       17.55205        -2.87495         0.91043
   H       18.87503        -4.44281        -0.77318
   H       23.83571        -4.07391        -4.48099
   H       23.53993        -1.17097        -7.13924
   H       27.60391        -5.92989        -6.85887
   H       29.64897        -6.92134        -7.85168
   H       31.54511        -6.77644        -9.41821
   H       31.83420        -4.78318       -10.83585
   H       30.23138        -2.91856       -10.69984
   H       28.24720        -1.91840        -9.74983
*
