# ORCA input file
# SCF done       -207.058495377226          0.000742576550
! CAM-B3LYP def2-SVP def2/J RIJCOSX Grid4 TightSCF
%maxcore 5000
%tddft
    Mode sTDDFT
    Ethresh 5.0
    maxcore 5000
end

%pal
  nprocs 6
  end
* xyz 0 1
   C        1.80332        -1.27826         3.66615
   O        1.27373        -2.24222         4.19076
   C        2.39417        -0.12366         4.36664
   C        2.91001         0.78026         3.42109
   C        3.51655         1.94717         3.85501
   C        3.59572         2.18967         5.22251
   C        3.07920         1.28428         6.15206
   C        2.47054         0.11194         5.72330
  Br        3.20046         1.63877         8.00404
  Br        4.42394         3.78319         5.81218
   C        2.67273         0.24683         2.07904
   C        3.04828         0.85868         0.91305
   C        3.71845         2.10051         0.85480
   N        4.26566         3.10284         0.74407
   C        2.83308         0.35768        -0.38931
   N        2.69473         0.02291        -1.47867
   C        1.98412        -1.02199         2.23548
   C        1.56156        -1.84328         1.21859
   C        0.89248        -3.07385         1.26396
   C        0.52854        -3.75945         0.09532
   C       -0.12250        -4.94739         0.35859
   C       -0.25909        -5.18340         1.74948
   S        0.40336        -3.94978         2.71576
   C       -0.93523        -6.41273         1.91752
   C       -1.23124        -6.95668         0.65290
   C       -0.73460        -6.04977        -0.37018
   C       -0.83613        -6.19566        -1.72134
   C       -1.48837        -7.29989        -2.31187
   N       -2.02897        -8.18527        -2.79900
   C       -0.31058        -5.24244        -2.62052
   N        0.11123        -4.46933        -3.35395
   C       -1.89952        -8.17629         0.72615
   C       -2.12254        -8.57244         2.03621
   S       -1.48904        -7.40096         3.19152
   C       -2.79174        -9.73426         2.52032
   C       -3.19414        -9.84114         3.81543
   C       -3.89215       -10.96170         4.31969
   C       -4.07911       -12.09600         3.59430
   C       -3.45294       -12.20644         2.21836
   C       -3.15213       -10.84406         1.54386
   N       -2.12000       -10.94053         0.53908
   C       -1.25509       -11.84938         0.61960
   C       -1.28811       -12.88380         1.67053
   N       -2.29250       -13.05199         2.40677
   F       -0.21167       -13.63713         1.84561
   F       -0.28431       -11.90050        -0.28045
   C       -4.71548       -13.25202         4.12503
   C       -4.85278       -14.50239         3.54107
   C       -5.50983       -15.40382         4.37352
   C       -5.88344       -14.84059         5.60837
   S       -5.42498       -13.20316         5.73538
   C       -6.53173       -15.83061         6.38323
   C       -6.56535       -17.02813         5.63589
   C       -5.94200       -16.79274         4.34482
   C       -5.83588       -17.67927         3.31414
   C       -6.33524       -18.99441         3.42709
   N       -6.74802       -20.05770         3.54332
   C       -5.24037       -17.32878         2.08407
   N       -4.75751       -17.03180         1.08772
   C       -7.20197       -18.06357         6.30329
   C       -7.66480       -17.67687         7.55543
   S       -7.26341       -15.99786         7.90827
   C       -8.32778       -18.43869         8.53724
   C       -8.97171       -19.63563         8.41715
   C       -9.20856       -20.43422         9.65160
   O       -9.08016       -20.05952        10.79256
   C       -9.57825       -21.78262         9.17151
   C       -9.68200       -21.76795         7.76836
   C       -9.45484       -20.40364         7.29005
   C       -9.88568       -19.92275         6.08145
   C       -9.88352       -18.55850         5.73110
   N       -9.92227       -17.45543         5.41548
   C      -10.47818       -20.72573         5.08264
   N      -10.97143       -21.33476         4.24542
   C       -9.97726       -22.93538         7.08627
   C      -10.17822       -24.09992         7.81961
   C      -10.09288       -24.10199         9.21407
   C       -9.78676       -22.93425         9.90149
  Br      -10.38494       -25.69550        10.18610
  Br      -10.56998       -25.69872         6.89244
   H        3.92728         2.67151         3.17085
   H        2.06736        -0.59651         6.43014
   H        1.76085        -1.50995         0.20732
   H        0.74682        -3.37302        -0.88470
   H       -2.21533        -8.75764        -0.11919
   H       -2.99247        -9.02811         4.49760
   H       -4.27176       -10.90574         5.32956
   H       -4.12923       -12.76632         1.55894
   H       -4.05199       -10.51085         1.00739
   H       -4.46642       -14.74750         2.56997
   H       -7.28869       -19.06818         5.93172
   H       -8.26705       -18.06238         9.55436
   H      -10.04282       -22.96995         6.01062
   H       -9.71301       -22.92649        10.97787
*
