# ORCA input file
# SCF done       -180.882990093142          0.000727056139
! CAM-B3LYP def2-SVP def2/J RIJCOSX Grid4 TightSCF
%maxcore 5000
%tddft
    Mode sTDDFT
    Ethresh 5.0
    maxcore 5000
end

%pal
  nprocs 6
  end
* xyz 0 1
   C       -7.71084        -0.06865        -0.80470
   C       -6.83295         0.06369         0.24368
   C       -6.12990        -1.01146         0.81939
   N       -5.49175        -1.84014         1.29456
   C       -6.60590         1.26393         0.94550
   N       -6.43628         2.18417         1.61071
   C       -8.23618        -1.33263        -1.31161
   C       -9.36684        -1.05765        -2.13530
   C      -10.10121        -2.05562        -2.70638
   C       -9.72899        -3.40080        -2.48246
   C       -8.59145        -3.68324        -1.67314
   C       -7.85124        -2.62793        -1.09135
   C       -8.23013        -5.02844        -1.45679
   C       -8.95936        -6.04704        -2.00725
   C      -10.08043        -5.76773        -2.80252
   C      -10.45609        -4.47254        -3.03597
   C       -9.55387         0.40180        -2.22905
   O      -10.42349         1.00387        -2.81923
   C       -8.40822         0.99778        -1.48735
   C       -8.17109         2.33327        -1.61275
   C       -7.04208         3.12812        -1.24483
   C       -7.28747         4.41742        -0.77925
   C       -6.28782         5.22706        -0.27656
   C       -4.94710         4.83082        -0.23067
   C       -4.62537         3.50922        -0.69416
   C       -3.39864         2.85139        -0.59458
  Si       -3.47430         1.57787        -1.88081
   C       -5.27726         1.42507        -1.74104
   C       -5.68937         2.67455        -1.27146
   C       -3.98615         5.76720         0.25965
   C       -4.22707         7.01565         0.86659
   C       -3.02898         7.75421         1.20661
   N       -3.12447         8.94954         1.78673
   C       -4.31919         9.42661         2.06541
   C       -4.38360        10.71759         2.78185
   O       -3.39303        11.28946         3.19928
   C       -5.74337        11.23680         2.99378
   C       -6.85218        10.58239         2.62852
   C       -6.84520         9.27235         1.95587
   O       -7.86624         8.71691         1.60334
   C       -5.49730         8.70653         1.71638
   N       -5.42835         7.53159         1.13194
   C       -1.84080         7.11288         0.82463
   S       -2.26808         5.57945         0.10627
   C       -0.45208         7.43377         0.89407
   C        0.39526         6.75578        -0.00324
   C        1.76720         6.78808         0.07982
   C        2.41011         7.52195         1.08567
   C        1.62818         8.47250         1.79212
   C        2.16099         9.59532         2.43402
  Si        0.89437         9.89511         3.68625
   C       -0.45540         9.28160         2.64147
   C        0.16041         8.37173         1.78897
   C        3.77921         7.26267         1.35471
   C        4.41318         7.30466         2.57131
   C        5.83067         7.06235         2.76826
   C        6.79877         7.03812         1.79657
   C        8.16876         6.82459         2.05324
   N        9.29595         6.65282         2.19016
   C        6.58459         7.24856         0.41871
   N        6.50613         7.42499        -0.71393
   C        6.07037         6.92997         4.20032
   C        4.83746         7.13796         4.88065
   C        3.76813         7.38422         3.89830
   O        2.58589         7.55040         4.16155
   C        4.74591         7.07549         6.24080
   C        5.90664         6.79665         6.99810
   C        7.14257         6.58161         6.32402
   C        7.20596         6.65335         4.91256
   C        8.29202         6.29553         7.08717
   C        8.22680         6.22561         8.45256
   C        7.00972         6.43853         9.11563
   C        5.87442         6.71872         8.40380
   H      -10.95981        -1.82303        -3.31872
   H       -6.99325        -2.87240        -0.48502
   H       -7.36784        -5.23865        -0.84097
   H       -8.67685        -7.07432        -1.83146
   H      -10.64525        -6.58345        -3.22854
   H      -11.31874        -4.25112        -3.64738
   H       -8.99265         2.88029        -2.06887
   H       -8.30585         4.77526        -0.74830
   H       -6.55564         6.19761         0.10626
   H       -2.52588         3.32555        -0.18609
   H       -5.94985         0.82102        -2.32981
   H       -5.79626        12.19807         3.48712
   H       -7.83428        10.99689         2.81215
   H       -0.05596         6.15203        -0.77844
   H        2.35681         6.18168        -0.59224
   H        3.23117         9.71712         2.48873
   H       -1.52360         9.32028         2.76765
   H        4.34515         6.86885         0.51827
   H        3.79874         7.23475         6.73469
   H        8.15506         6.47893         4.43144
   H        9.22703         6.13285         6.57138
   H        9.11324         6.00548         9.02840
   H        6.97517         6.37872        10.19324
   H        4.93411         6.88223         8.90992
*
