# ORCA input file
# SCF done       -278.966384041408          0.000863622774
! CAM-B3LYP def2-SVP def2/J RIJCOSX Grid4 TightSCF
%maxcore 5000
%tddft
    Mode sTDDFT
    Ethresh 5.0
    maxcore 5000
end

%pal
  nprocs 6
  end
* xyz 0 1
   C        0.56804        -1.06395        -2.38872
   C       -0.51816        -0.26659        -2.73762
   C       -0.60743         0.28503        -4.12468
   C       -1.52154         0.02062        -1.79841
   C       -2.68134         0.88715        -2.17288
   C       -1.43575        -0.50509        -0.51335
   C       -0.36071        -1.30208        -0.17507
   C        0.65368        -1.58211        -1.10895
   C        1.67856        -2.38939        -0.45896
   C        2.99010        -2.47925        -0.84155
   C        3.48179        -2.00372        -2.07232
   N        3.92560        -1.65722        -3.07323
   C        4.00493        -2.97544         0.00509
   N        4.86720        -3.30100         0.68912
   C        1.13236        -2.82312         0.81121
   C       -0.06556        -1.98242         1.09923
   O       -0.68059        -1.92890         2.13969
   C        1.42476        -3.87877         1.61248
   C        2.19879        -5.03333         1.32719
   C        2.62754        -5.95348         2.24935
   C        3.32272        -7.04787         1.69246
   C        3.87606        -8.16127         2.36114
   C        3.70484        -8.34091         3.78672
   C        2.57880        -8.13167         4.53441
   C        2.75676        -8.41740         5.90183
   C        4.01508        -8.83743         6.20749
   S        5.01182        -8.90357         4.79160
   C        4.56712        -9.21630         7.53389
   C        4.55697        -9.07836         1.57023
   C        4.68681        -8.95517         0.16338
   C        4.11702        -7.85392        -0.50858
   C        3.44194        -6.93489         0.28435
   S        2.61365        -5.52357        -0.30629
   C        4.23016        -7.65654        -1.93998
   C        4.45095        -6.48054        -2.60061
   C        4.48472        -6.62113        -4.00206
   C        4.27986        -7.89753        -4.42441
   S        4.04810        -8.96540        -3.07767
   C        4.25022        -8.42292        -5.81446
   C        5.41863       -10.02966        -0.39126
   C        5.80827       -10.96102         0.52900
   S        5.31378       -10.53716         2.14880
   C        6.51925       -12.17170         0.27500
   C        6.76243       -12.73810        -0.94314
   C        7.47446       -13.95858        -0.87079
   C        7.87900       -14.79069        -1.93503
   C        7.66926       -14.43637        -3.32391
   C        7.33721       -15.25711        -4.36499
   C        7.25922       -14.59001        -5.60366
   C        7.54299       -13.26217        -5.52467
   S        7.90569       -12.80377        -3.89295
   C        7.56389       -12.24951        -6.61251
   C        8.50958       -15.97884        -1.57989
   C        8.79165       -16.34191        -0.23999
   C        8.43155       -15.48568         0.81960
   C        7.74946       -14.32607         0.46980
   S        7.15817       -13.12943         1.58892
   C        8.77408       -15.80373         2.19019
   C        9.94483       -16.32059         2.67031
   C        9.94328       -16.50156         4.06761
   C        8.77558       -16.13215         4.66030
   S        7.64485       -15.53480         3.49006
   C        8.40858       -16.18570         6.09936
   C        9.42106       -17.60777        -0.15700
   C        9.64701       -18.18920        -1.36917
   S        9.08048       -17.19351        -2.69402
   C       10.24938       -19.45329        -1.62898
   C       10.38081       -20.08043        -2.83367
   C       11.02606       -21.33734        -2.75638
   C       11.29336       -22.24535        -3.80164
   C       10.95747       -21.96881        -5.18378
   C       10.46314       -22.83574        -6.11729
   C       10.29208       -22.25203        -7.38817
   C       10.66674       -20.94548        -7.44120
   S       11.23308       -20.40055        -5.89617
   C       10.63686       -20.01703        -8.60134
   C       11.90664       -23.44082        -3.43884
   C       12.29447       -23.73659        -2.10821
   C       12.02840       -22.82809        -1.06207
   C       11.37692       -21.65904        -1.41933
   S       10.92016       -20.39250        -0.31372
   C       12.37720       -23.16032         0.30448
   C       13.54574       -23.68462         0.78116
   C       13.50882       -23.96299         2.16174
   C       12.31401       -23.66470         2.74155
   S       11.20687       -23.00434         1.58431
   C       11.89714       -23.86638         4.15315
   C       12.86942       -25.01546        -1.99389
   C       12.93279       -25.70786        -3.17526
   S       12.31506       -24.75035        -4.51004
   C       13.44776       -27.00511        -3.41707
   C       13.71963       -27.99275        -2.52228
   C       14.64323       -29.09344        -2.92524
   O       14.98603       -29.37290        -4.05118
   C       15.08037       -29.70738        -1.65895
   C       14.38259       -29.12424        -0.58632
   C       14.65774       -29.53052         0.70774
   C       15.61440       -30.51619         0.93274
   C       16.29736       -31.10491        -0.14336
   C       16.02450       -30.69046        -1.44305
   C       17.31559       -32.17221         0.10056
   C       15.90776       -30.94645         2.33457
   C       13.41585       -28.16741        -1.11558
   C       12.30244       -27.72385        -0.45022
   C       11.23200       -27.04924        -1.07307
   N       10.31202       -26.54271        -1.53604
   C       12.06833       -27.92954         0.92355
   N       11.84647       -28.02604         2.04623
   H        1.32722        -1.28030        -3.12422
   H        0.25211        -0.01835        -4.71587
   H       -0.64695         1.37341        -4.10158
   H       -1.51271        -0.06649        -4.61891
   H       -2.33864         1.87510        -2.47887
   H       -3.36309         1.00083        -1.33457
   H       -3.22806         0.45493        -3.01036
   H       -2.19779        -0.29487         0.22226
   H        0.91927        -3.88688         2.57361
   H        2.48603        -5.81527         3.30592
   H        1.63806        -7.82955         4.10970
   H        1.97493        -8.31556         6.63365
   H        3.80399        -9.10551         8.30027
   H        5.41800        -8.58605         7.79034
   H        4.91050       -10.25027         7.52502
   H        4.63046        -5.54639        -2.09930
   H        4.65741        -5.79740        -4.67152
   H        3.29620        -8.90557        -6.02549
   H        5.03705        -9.16268        -5.96229
   H        4.39732        -7.60942        -6.52065
   H        5.66252       -10.10908        -1.43341
   H        6.41146       -12.30635        -1.86098
   H        7.11654       -16.30209        -4.24508
   H        6.99955       -15.08274        -6.52388
   H        7.29079       -12.71342        -7.55729
   H        8.55610       -11.80915        -6.71063
   H        6.86233       -11.44286        -6.40052
   H       10.79835       -16.52308         2.04828
   H       10.78410       -16.89206         4.61338
   H        7.54159       -16.82802         6.25176
   H        8.15463       -15.19205         6.46736
   H        9.24058       -16.57476         6.68124
   H        9.67262       -18.09202         0.76911
   H       10.00687       -19.64717        -3.74321
   H       10.19120       -23.85121        -5.89369
   H        9.90322       -22.78783        -8.23582
   H       10.21614       -20.52054        -9.46846
   H       11.64239       -19.67563        -8.84742
   H       10.03372       -19.13777        -8.37616
   H       14.42060       -23.82414         0.17003
   H       14.34106       -24.37459         2.70504
   H       12.76812       -24.05497         4.77639
   H       11.22582       -24.72255         4.22920
   H       11.36963       -22.99177         4.52951
   H       13.24832       -25.39962        -1.06531
   H       13.72945       -27.22390        -4.44234
   H       14.14800       -29.08635         1.54844
   H       16.53976       -31.13005        -2.28396
   H       16.86354       -33.02436         0.60711
   H       18.11717       -31.79900         0.73725
   H       17.74668       -32.51403        -0.83631
   H       15.28999       -30.40103         3.04261
   H       16.95545       -30.77166         2.57770
   H       15.71587       -32.01199         2.45501
*
