# ORCA input file
# SCF done       -248.859680962572          0.000235228512
! CAM-B3LYP def2-SVP def2/J RIJCOSX Grid4 TightSCF
%maxcore 5000
%tddft
    Mode sTDDFT
    Ethresh 5.0
    maxcore 5000
end

%pal
  nprocs 6
  end
* xyz 0 1
   C       -2.46525         2.39061         9.36342
   C       -2.12628         3.60701         9.90051
   C       -1.23723         3.77070        10.98300
   N       -0.52945         3.97604        11.86368
   C       -2.55971         4.86788         9.43970
   N       -2.83737         5.93583         9.11924
   C       -1.91107         1.10952         9.78388
   C       -2.35878         0.11215         8.88471
   C       -1.99916        -1.20840         9.00306
   C       -1.16326        -1.56443        10.06562
   C       -0.72764        -0.56249        10.96469
   C       -1.08670         0.77472        10.84112
   S        0.28806        -1.22945        12.20445
   C        0.12585        -2.81025        11.52082
   C       -0.65134        -2.84557        10.41667
   C       -3.23697         0.72003         7.86788
   O       -3.74287         0.12632         6.93512
   C       -3.36022         2.14517         8.24470
   C       -4.23613         3.08691         7.76671
   C       -5.16391         3.04465         6.71314
   C       -5.41344         2.11732         5.70616
   C       -6.44950         2.47236         4.85811
   C       -7.01485         3.71136         5.21872
   S       -6.25520         4.42339         6.57364
   C       -8.10834         4.13138         4.42867
   C       -8.48299         3.26711         3.39211
  Si       -7.35167         1.77221         3.37416
   C       -6.28433         1.69325         1.84697
   C       -5.47781         2.77471         1.47707
   C       -4.68022         2.72150         0.35044
   C       -4.66845         1.58228        -0.43786
   C       -5.45884         0.49941        -0.09164
   C       -6.25588         0.55600         1.03639
   C       -8.23343         0.17159         3.73201
   C       -7.50651        -0.95328         4.13466
   C       -8.13129        -2.16216         4.37377
   C       -9.50270        -2.27810         4.21600
   C      -10.24355        -1.17687         3.82172
   C       -9.61551         0.03158         3.58391
   C       -9.58769         3.75751         2.70019
   C      -10.06261         4.96167         3.19014
   S       -9.10892         5.52829         4.53848
   C      -11.19820         5.68801         2.75291
   C      -11.69649         6.87278         3.26196
   C      -12.87373         7.26339         2.62306
   C      -13.27251         6.37004         1.61518
   S      -12.19546         5.05430         1.44838
   C      -14.49502         6.82531         1.06296
   C      -14.87443         8.00558         1.72290
   C      -13.86032         8.32882         2.71533
   C      -13.84173         9.40044         3.55805
   C      -12.79808         9.60881         4.48456
   N      -11.95227         9.78079         5.23920
   C      -14.86452        10.37246         3.55998
   N      -15.69445        11.16348         3.56595
   C      -16.09798         8.50801         1.27908
   C      -16.65249         7.72161         0.28627
   S      -15.63559         6.34268        -0.11457
   C      -17.90253         7.88833        -0.36027
   C      -18.44118         7.11770        -1.37567
   C      -19.72305         7.50779        -1.75550
   C      -20.16603         8.60292        -1.00191
   S      -19.00226         9.14918         0.14170
   C      -21.47585         9.05446        -1.28073
   C      -22.17451         8.30372        -2.24151
  Si      -21.05390         6.99058        -2.96798
   C      -20.71407         7.45408        -4.73898
   C      -19.42970         7.71604        -5.22050
   C      -19.22299         8.10539        -6.53082
   C      -20.29780         8.24940        -7.39153
   C      -21.58158         7.99287        -6.93868
   C      -21.78213         7.59848        -5.63073
   C      -21.61858         5.23252        -2.71496
   C      -21.81367         4.71483        -1.42996
   C      -22.23348         3.41275        -1.23795
   C      -22.47004         2.59216        -2.32889
   C      -22.28295         3.08237        -3.61035
   C      -21.86197         4.38557        -3.79893
   C      -23.41875         8.85194        -2.50169
   C      -23.69726        10.00109        -1.76991
   S      -22.37810        10.38020        -0.68135
   C      -24.84923        10.80923        -1.79355
   C      -25.81046        10.87656        -2.76276
   C      -25.85320        10.41151        -4.12997
   C      -24.78692        10.27492        -4.98569
   C      -24.88994         9.84099        -6.32039
   N      -24.90128         9.45003        -7.40069
   C      -23.45977        10.61285        -4.65388
   N      -22.36974        10.91875        -4.46215
   C      -27.25663        10.36437        -4.52834
   C      -28.03382        10.99820        -3.52502
   C      -27.15114        11.41573        -2.41795
   O      -27.45413        12.02323        -1.41527
   C      -29.39478        11.14731        -3.63370
   C      -30.01901        10.63877        -4.77756
   C      -29.23566         9.99800        -5.76651
   C      -27.85664         9.85494        -5.66279
   S      -30.21935         9.43999        -7.08324
   C      -31.64053        10.06103        -6.31698
   C      -31.39831        10.65760        -5.12971
   H       -2.35495        -1.94342         8.29771
   H       -0.73091         1.49842        11.55499
   H        0.63095        -3.62808        11.99696
   H       -0.86500        -3.73941         9.85886
   H       -4.25450         4.02623         8.30765
   H       -4.84518         1.21023         5.61947
   H       -5.48056         3.66614         2.08878
   H       -4.06432         3.56847         0.08523
   H       -4.04441         1.53893        -1.31835
   H       -5.45275        -0.39174        -0.70242
   H       -6.86908        -0.29348         1.30224
   H       -6.43704        -0.87047         4.26233
   H       -7.54860        -3.01698         4.68462
   H       -9.99234        -3.22284         4.40178
   H      -11.31386        -1.26090         3.69973
   H      -10.20179         0.88657         3.27904
   H      -10.04600         3.25984         1.86297
   H      -11.21850         7.40479         4.06479
   H      -16.57899         9.39426         1.65214
   H      -17.90803         6.29134        -1.81325
   H      -18.58626         7.61662        -4.55198
   H      -18.22035         8.30527        -6.88045
   H      -20.13747         8.56470        -8.41185
   H      -22.42689         8.11137        -7.60060
   H      -22.78713         7.39930        -5.28487
   H      -21.62947         5.34981        -0.57448
   H      -22.37694         3.03438        -0.23619
   H      -22.79813         1.57391        -2.18011
   H      -22.46493         2.44642        -4.46449
   H      -21.71489         4.76141        -4.80149
   H      -24.13334         8.40982        -3.17340
   H      -25.04336        11.41067        -0.91111
   H      -29.96106        11.64190        -2.85991
   H      -27.30039         9.35561        -6.43913
   H      -32.58413         9.93789        -6.81200
   H      -32.15865        11.10014        -4.51197
*
