# ORCA input file
# SCF done       -254.386707762728          0.000326686471
! CAM-B3LYP def2-SVP def2/J RIJCOSX Grid4 TightSCF
%maxcore 5000
%tddft
    Mode sTDDFT
    Ethresh 5.0
    maxcore 5000
end

%pal
  nprocs 6
  end
* xyz 0 1
   C       -2.74359         0.36780        -5.65468
   C       -2.46580        -0.84653        -5.08584
   C       -2.06978        -1.98789        -5.81386
   N       -1.73982        -2.94604        -6.35312
   C       -2.57686        -1.13483        -3.70878
   N       -2.66453        -1.45108        -2.60840
   C       -2.73663         0.66726        -7.07813
   C       -3.25174         1.97374        -7.26835
   C       -3.37029         2.54732        -8.51162
   C       -2.96155         1.79787        -9.61847
   C       -2.44467         0.49489        -9.41802
   C       -2.32497        -0.08623        -8.16171
   S       -1.99471        -0.24114       -10.92409
   C       -2.49400         1.17004       -11.79063
   C       -2.97570         2.15145       -10.99720
   C       -3.60346         2.56816        -5.96505
   O       -4.06902         3.67239        -5.78708
   C       -3.18773         1.56128        -4.94908
   C       -3.00838         1.79990        -3.62431
   C       -3.47096         2.93870        -2.87611
   C       -4.71932         3.53108        -3.11871
   C       -5.09359         4.62580        -2.38033
   C       -4.23688         5.15932        -1.40105
   C       -3.01544         4.55638        -1.12780
   C       -2.65380         3.44011        -1.85050
   C       -4.87546         6.31512        -0.81229
   C       -6.13415         6.48693        -1.41490
   C       -6.37537         5.42029        -2.45690
   C       -6.57556         6.03306        -3.85569
   C       -5.37078         6.83704        -4.32840
   C       -7.59433         4.55016        -2.09565
   C       -7.48098         3.91134        -0.71660
   C       -6.95795         7.51348        -1.02310
   C       -6.53398         8.40800        -0.02761
   C       -5.27268         8.22548         0.55651
   C       -4.44575         7.18907         0.17675
   C       -7.42562         9.47004         0.37546
   C       -7.10465        10.53815         1.12873
   C       -8.02803        11.54485         1.53994
   C       -7.73734        12.66292         2.26892
   C       -8.86373        13.46415         2.57107
   C       -8.89684        14.67350         3.29333
   C       -7.67458        15.31505         3.73404
   C       -6.51202        15.46749         3.03437
   C       -5.51960        16.14940         3.77144
   C       -5.90211        16.51698         5.02849
   S       -7.53507        16.02169         5.32065
   C       -5.12414        17.23709         6.06738
  Cl       -3.95921        16.48158         3.11932
   C      -10.15267        15.21229         3.54139
   C      -11.35589        14.64315         3.05328
   C      -11.31765        13.46708         2.27414
   C      -10.06408        12.89722         2.07468
   S       -9.74193        11.43320         1.18651
   C      -12.51013        12.87814         1.70028
   C      -12.81224        11.55369         1.56182
   C      -14.04227        11.33857         0.90354
   C      -14.68756        12.47807         0.52095
   S      -13.76341        13.86405         0.99101
   C      -15.98461        12.62375        -0.18623
  Cl      -14.66280         9.75836         0.61469
   C      -12.48935        15.37555         3.47624
   C      -12.18310        16.47332         4.23066
   S      -10.45669        16.66300         4.45510
   C      -13.07790        17.39514         4.83693
   C      -12.74783        18.47115         5.63898
   C      -13.87849        19.14967         6.09216
   C      -15.07901        18.58528         5.62787
   S      -14.81190        17.22148         4.63207
   C      -16.16445        19.32488         6.15986
   C      -15.64397        20.36121         6.96170
   C      -14.19407        20.28217         6.94822
   C      -13.32451        21.08368         7.62769
   C      -11.92599        20.91500         7.55337
   N      -10.78872        20.78513         7.48911
   C      -13.78301        22.13648         8.44754
   N      -14.16903        22.99213         9.10626
   C      -16.63168        21.12223         7.57204
   C      -17.90784        20.68226         7.25247
   S      -17.86506        19.31664         6.13988
   C      -19.15438        21.20129         7.66345
   C      -19.43231        22.00718         8.72558
   C      -18.68857        22.38661         9.90873
   C      -17.75388        21.63261        10.57123
   C      -17.17652        22.00195        11.80414
   N      -16.68302        22.24789        12.81052
   C      -17.33570        20.35293        10.15969
   N      -16.98242        19.29606         9.88173
   C      -19.31447        23.59111        10.44313
   C      -20.54509        23.80314         9.76899
   C      -20.71074        22.77502         8.72717
   O      -21.65327        22.60300         7.98794
   C      -21.38728        24.84156        10.08671
   C      -20.99145        25.71612        11.10352
   C      -19.75097        25.50731        11.75379
   C      -18.90198        24.45201        11.44064
   S      -19.46247        26.71847        12.96155
   C      -20.97552        27.47429        12.60009
   C      -21.66923        26.85681        11.61906
   H       -3.76642         3.54470        -8.62430
   H       -1.91820        -1.07840        -8.05813
   H       -2.39317         1.17723       -12.85856
   H       -3.33124         3.09900       -11.35965
   H       -2.40472         1.09672        -3.06128
   H       -5.38138         3.10623        -3.85523
   H       -2.36473         4.94837        -0.36071
   H       -1.70744         2.95617        -1.65572
   H       -7.45933         6.67456        -3.82948
   H       -6.76359         5.22729        -4.56715
   H       -5.11056         7.60848        -3.60621
   H       -5.59462         7.31582        -5.27874
   H       -4.51327         6.18440        -4.47049
   H       -7.69857         3.76766        -2.84990
   H       -8.49061         5.17282        -2.13431
   H       -6.60565         3.26785        -0.66084
   H       -8.36300         3.30952        -0.51023
   H       -7.39633         4.67308         0.05546
   H       -7.93008         7.64824        -1.47568
   H       -4.94729         8.89691         1.33584
   H       -3.48163         7.05940         0.64535
   H       -8.44632         9.38659         0.02019
   H       -6.09070        10.69280         1.47118
   H       -6.74349        12.89205         2.60734
   H       -6.37522        15.14951         2.01730
   H       -4.12571        17.45307         5.69536
   H       -5.04311        16.63569         6.97220
   H       -5.61477        18.17335         6.33132
   H      -12.20727        10.75278         1.94339
   H      -16.40497        11.64101        -0.38440
   H      -15.85032        13.14873        -1.13156
   H      -16.68910        13.19548         0.41714
   H      -13.50356        15.09758         3.25435
   H      -11.73053        18.72697         5.87519
   H      -16.44732        21.98281         8.18894
   H      -20.00170        20.98728         7.01897
   H      -22.32291        24.97496         9.56622
   H      -17.96197        24.33598        11.95443
   H      -21.25613        28.34936        13.15346
   H      -22.62841        27.18483        11.26142
*
