# ORCA input file
# SCF done       -275.929473393772          0.000684976149
! CAM-B3LYP def2-SVP def2/J RIJCOSX Grid4 TightSCF
%maxcore 5000
%tddft
    Mode sTDDFT
    Ethresh 5.0
    maxcore 5000
end

%pal
  nprocs 6
  end
* xyz 0 1
   C        4.17297         4.09812        -9.36839
   C        2.88402         4.39145        -9.71708
   F        2.46467         4.14210       -10.97068
   C        1.96859         4.94715        -8.81289
   C        2.37670         5.20643        -7.53410
   C        3.69449         4.92315        -7.12029
   C        4.61111         4.36026        -8.05579
   C        5.94112         4.07636        -7.66711
   C        6.33666         4.34310        -6.38448
   C        5.41083         4.88855        -5.44861
   C        4.12431         5.18026        -5.79912
   C        6.07130         5.03422        -4.13711
   O        5.61544         5.50578        -3.12173
   C        7.41548         4.41121        -4.30706
   C        7.63019         4.19554        -5.72233
   C        8.83980         4.11985        -6.36347
   C       10.07559         4.27743        -5.70267
   N       11.09620         4.45382        -5.20885
   C        8.98334         3.93107        -7.75091
   N        9.14975         3.73048        -8.86973
   C        8.11672         4.05030        -3.19739
   C        9.18119         3.12358        -3.08564
   C        9.55448         2.13161        -3.95841
   C       10.64279         1.35713        -3.51696
   C       11.26533         0.28126        -4.19095
   C       10.92531        -0.07990        -5.54893
   C       10.92169        -1.31988        -6.12666
   C       10.61249        -1.27887        -7.50123
   C       10.39031        -0.02531        -7.99860
   S       10.55740         1.14364        -6.73978
   C       10.05573         0.37299        -9.38885
  Cl       10.52273        -2.69258        -8.47688
   C       12.26566        -0.38065        -3.49048
   C       12.68292        -0.01259        -2.18407
   C       12.09265         1.09107        -1.53235
   C       11.08503         1.75202        -2.22757
   S       10.15958         3.09741        -1.63226
   C       12.49022         1.52231        -0.20792
   C       12.59615         2.80321         0.25509
   C       12.95963         2.86352         1.61754
   C       13.12264         1.64722         2.21484
   S       12.82859         0.38402         1.06991
   C       13.48575         1.34067         3.62102
  Cl       13.17856         4.35693         2.44495
   C       13.73961        -0.82810        -1.72425
   C       14.12768        -1.78495        -2.62144
   S       13.20158        -1.71840        -4.10301
   C       15.13191        -2.76757        -2.43438
   C       15.64497        -3.68500        -3.32489
   C       16.64466        -4.54730        -2.79377
   C       17.07648        -5.45583        -3.80510
   C       16.47162        -5.30460        -5.00920
   S       15.29451        -4.00572        -4.99262
   C       16.70612        -6.09346        -6.24419
   F       18.01038        -6.40544        -3.60932
   C       16.89914        -4.29626        -1.45013
   S       15.90089        -2.98101        -0.88617
   C       17.77304        -4.92535        -0.52276
   C       18.80888        -5.79022        -0.74197
   C       19.45094        -6.22074         0.44168
   C       20.50250        -7.15313         0.55770
   C       21.15171        -7.74674        -0.59312
   C       21.57998        -9.03521        -0.74004
   C       22.22946        -9.25602        -1.97343
   C       22.32193        -8.15176        -2.77015
   S       21.57521        -6.79877        -1.99354
   C       22.93401        -8.02213        -4.11624
  Cl       22.85375       -10.79706        -2.41911
   C       20.90266        -7.47640         1.84998
   C       20.31675        -6.90846         3.01087
   C       19.24760        -5.99006         2.89758
   C       18.86032        -5.66036         1.60429
   S       17.55331        -4.59136         1.18635
   C       18.53819        -5.48192         4.05029
   C       17.93425        -4.26550         4.21516
   C       17.24781        -4.16019         5.44192
   C       17.29957        -5.28059         6.22280
   S       18.22861        -6.50223         5.43372
   C       16.69260        -5.51071         7.55802
  Cl       16.40639        -2.73759         5.91793
   C       20.93913        -7.36502         4.18751
   C       21.93815        -8.28185         3.97328
   S       22.18734        -8.57122         2.26405
   C       22.76545        -8.93048         4.92230
   C       22.55726        -9.09979         6.25657
   C       23.72214        -9.41984         7.13088
   O       24.81482        -9.79196         6.77170
   C       23.26764        -9.12595         8.50322
   C       23.98187        -9.14544         9.66627
   C       23.33947        -8.79832        10.87572
   C       21.96309        -8.42781        10.85368
   C       21.33100        -8.07604        12.06216
   C       22.04692        -8.10176        13.22654
   C       23.39982        -8.46550        13.26935
   C       24.02969        -8.80754        12.10518
   F       21.44379        -7.76759        14.38154
   C       21.24598        -8.42333         9.63457
   C       21.88668        -8.77551         8.47758
   C       21.40026        -8.91083         7.10675
   C       20.08663        -9.08054         6.75253
   C       19.67738        -9.51549         5.47512
   N       19.30558        -9.92133         4.46820
   C       19.00425        -8.89720         7.63405
   N       18.08733        -8.71447         8.30148
   H        4.85134         3.67422       -10.09225
   H        0.96439         5.15749        -9.14502
   H        1.68977         5.63409        -6.81947
   H        6.61238         3.64476        -8.39268
   H        3.44137         5.60146        -5.07673
   H        7.75702         4.47894        -2.26715
   H        9.01133         1.92253        -4.86108
   H       11.09259        -2.23676        -5.59427
   H       10.90556         0.19155       -10.04755
   H        9.79961         1.42899        -9.43221
   H        9.21765        -0.21789        -9.75735
   H       12.46308         3.67822        -0.35325
   H       13.86511         2.23732         4.10518
   H       14.24457         0.56134         3.66121
   H       12.61423         0.98935         4.17448
   H       14.21987        -0.71750        -0.76986
   H       17.45870        -6.85610        -6.05820
   H       17.04606        -5.44498        -7.05109
   H       15.78387        -6.57419        -6.56878
   H       19.10403        -6.11847        -1.71771
   H       21.40858        -9.81409        -0.02072
   H       23.43389        -8.95023        -4.38173
   H       23.65849        -7.20905        -4.13246
   H       22.17089        -7.80659        -4.86412
   H       18.00138        -3.45543         3.51320
   H       17.08688        -4.79598         8.28084
   H       16.90564        -6.51956         7.90349
   H       15.61270        -5.37180         7.50911
   H       20.70751        -6.98481         5.16513
   H       23.72301        -9.28891         4.55737
   H       25.02501        -9.42386         9.66410
   H       20.28948        -7.79484        12.06779
   H       23.91318        -8.46767        14.21773
   H       25.07128        -9.09127        12.11253
   H       20.20725        -8.13327         9.64553
*
