# ORCA input file
# SCF done       -217.826213208795          0.000787891603
! CAM-B3LYP def2-SVP def2/J RIJCOSX Grid4 TightSCF
%maxcore 5000
%tddft
    Mode sTDDFT
    Ethresh 5.0
    maxcore 5000
end

%pal
  nprocs 6
  end
* xyz 0 1
   C       11.42149         8.87559        -0.01788
   C       12.09267         9.71184        -0.86667
   F       12.99353        10.57479        -0.36967
   C       11.87876         9.70657        -2.25271
   C       10.96661         8.83502        -2.77833
   C       10.24723         7.94876        -1.94926
   C       10.47812         7.97054        -0.54140
   C        9.76674         7.09457         0.31101
   C        8.85774         6.22475        -0.22809
   C        8.64282         6.19572        -1.63848
   C        9.31189         7.03650        -2.48351
   C        7.66321         5.14840        -1.96394
   O        7.18033         4.86634        -3.03365
   C        7.43137         4.42690        -0.66903
   C        7.98407         5.23899         0.40008
   C        7.58934         5.23277         1.70678
   C        6.55725         4.40909         2.20776
   N        5.66737         3.82935         2.64191
   C        8.08837         6.13026         2.67532
   N        8.46420         6.84619         3.48871
   C        6.93680         3.16602        -0.69027
   C        7.01843         2.19784         0.35106
   N        7.86349         2.32793         1.35960
   C        7.73884         1.20294         2.09548
   C        6.75670         0.28652         1.50567
   C        6.62366        -0.92440         2.33061
   O        5.93653        -1.90202         2.13076
   C        7.54667        -0.65464         3.45172
   C        8.21908         0.65109         3.25587
   N        9.06447         0.91329         4.28298
   C        8.95007        -0.11057         5.08964
   C        8.01243        -1.12582         4.63340
   C        6.27064         0.91813         0.38528
   C        5.26890         0.52488        -0.53937
   C        4.68023        -0.69772        -0.51384
   C        3.66823        -1.11884        -1.40712
   C        3.12670        -2.39528        -1.48798
   C        2.15211        -2.49169        -2.47511
   C        1.93208        -1.26916        -3.14563
   S        2.94105        -0.01875        -2.57362
   C        0.91751        -1.45412        -4.10871
   C        0.49933        -2.80881        -4.06573
   C        1.26593        -3.49882        -3.03926
   C        1.18155        -4.81284        -2.68877
   C        1.99143        -5.37643        -1.67867
   N        2.64864        -5.84211        -0.86338
   C        0.28912        -5.71089        -3.31503
   N       -0.41861        -6.46005        -3.81584
   C       -0.50005        -3.08262        -4.97934
   C       -0.86579        -1.95174        -5.71755
   S        0.06876        -0.54097        -5.26036
   C       -1.92246        -1.96781        -6.65255
   N       -2.54898        -3.13094        -6.85548
   C       -3.60295        -2.86749        -7.63481
   C       -3.67957        -1.43457        -7.94345
   C       -4.86293        -1.12840        -8.76954
   O       -5.22575        -0.04710        -9.17853
   C       -5.46999        -2.45604        -8.94509
   C       -4.67455        -3.48841        -8.24082
   N       -5.22421        -4.70998        -8.40753
   C       -6.28553        -4.51130        -9.15719
   C       -6.49534        -3.13075        -9.53053
   C       -2.58383        -0.84793        -7.36937
   C       -2.28331         0.54407        -7.47186
   C       -1.06372         1.12307        -7.53275
   C       -0.84741         2.51933        -7.69790
   C       -1.66550         3.57486        -7.44148
   C       -1.32225         4.89084        -8.06612
   O       -0.26288         5.19037        -8.56473
   C       -2.55268         5.69492        -7.98273
   C       -2.81969         6.91976        -8.52410
   C       -4.10083         7.48695        -8.34529
   C       -5.09021         6.76272        -7.61726
   C       -6.37050         7.32704        -7.45610
   C       -6.63454         8.55601        -7.99395
   C       -5.67410         9.28581        -8.70850
   C       -4.42732         8.75137        -8.87758
   F       -7.85478         9.09799        -7.83969
   C       -4.78310         5.49935        -7.06114
   C       -3.52803         4.97976        -7.22984
   C       -2.92922         3.73675        -6.74966
   C       -3.39056         3.02444        -5.67355
   C       -4.57335         3.34103        -4.97089
   N       -5.52275         3.54754        -4.36087
   C       -2.71216         1.94389        -5.08308
   N       -2.19432         1.07233        -4.54312
   H       11.60977         8.90928         1.04375
   H       12.43852        10.38909        -2.87224
   H       10.78496         8.81253        -3.84220
   H        9.96754         7.12231         1.37023
   H        9.13203         7.00185        -3.54759
   H        6.52525         2.83681        -1.63825
   H        9.52590        -0.15445         5.99776
   H        7.77746        -2.03363         5.15271
   H        4.97007         1.24554        -1.29021
   H        4.98902        -1.42510         0.22707
   H        3.44792        -3.19729        -0.84825
   H       -0.98835        -4.02665        -5.13976
   H       -6.91206        -5.33980        -9.43839
   H       -7.29920        -2.76232       -10.13648
   H       -3.16046         1.15804        -7.64227
   H       -0.17818         0.50311        -7.56818
   H        0.09773         2.79877        -8.15518
   H       -2.06331         7.44866        -9.08432
   H       -7.13281         6.79502        -6.90873
   H       -5.94014        10.25100        -9.10934
   H       -3.67168         9.29419        -9.42515
   H       -5.55454         4.96809        -6.52672
*
