# ORCA input file
# SCF done       -231.405777497953          0.000511066107
! CAM-B3LYP def2-SVP def2/J RIJCOSX Grid4 TightSCF
%maxcore 5000
%tddft
    Mode sTDDFT
    Ethresh 5.0
    maxcore 5000
end

%pal
  nprocs 6
  end
* xyz 0 1
   C       -2.49208        -4.57628         2.03467
   C       -2.17330        -3.49653         2.77631
   C       -0.92964        -2.91064         2.39811
   C       -0.30594        -1.77254         2.94017
   C       -0.95118        -0.97613         3.96664
   C       -2.25282        -0.57064         4.01762
   C       -2.53625         0.20478         5.16376
   C       -1.47170         0.39418         5.99492
   S       -0.06998        -0.39451         5.35253
   C       -1.40962         1.14411         7.27484
  Cl       -4.10410         0.85220         5.46844
   C        0.94059        -1.44302         2.42324
   C        1.55997        -2.15422         1.36566
   C        0.91826        -3.27156         0.79563
   C       -0.30997        -3.62921         1.34937
   S       -1.30715        -4.96477         0.83759
   C        1.48083        -4.00919        -0.31663
   C        1.44205        -5.35672        -0.53691
   C        2.05050        -5.72976        -1.75451
   C        2.54774        -4.68850        -2.48283
   S        2.26854        -3.19986        -1.64693
   C        3.24130        -4.71192        -3.79475
  Cl        2.14998        -7.37177        -2.26381
   C        2.82104        -1.60367         1.03040
   C        3.15236        -0.50280         1.76805
   S        1.91506        -0.09548         2.93794
   C        4.33377         0.28454         1.66578
   C        5.32886         0.18796         0.71299
   C        6.33618         1.13436         0.91215
   C        6.10257         1.95343         2.03075
   S        4.64602         1.56197         2.82934
   C        7.16816         2.87874         2.14410
   C        8.07595         2.65209         1.09430
   C        7.58160         1.54389         0.28775
   C        8.16619         1.00527        -0.82159
   C        7.58828        -0.07220        -1.52434
   N        7.11864        -0.94699        -2.09871
   C        9.38663         1.49086        -1.33449
   N       10.38075         1.88130        -1.75236
   C        9.15680         3.52977         1.11364
   C        9.09534         4.42582         2.17081
   S        7.65234         4.16238         3.15799
   C       10.01813         5.45067         2.47679
   C        9.89641         6.26811         3.57916
   C       10.89222         7.26234         3.73747
   C       11.86881         7.30983         2.76673
  Si       11.54232         5.95764         1.50960
   C       12.91773         8.25597         2.77373
   C       13.91280         8.41177         1.81972
   C       14.78097         9.45814         2.12005
   C       14.45505        10.11131         3.32176
   S       13.07968         9.44063         4.07601
   C       15.38515        11.15665         3.53655
   C       16.29983        11.17210         2.46889
   C       15.95483        10.10411         1.54700
   C       16.59413         9.77196         0.38807
   C       16.15755         8.70877        -0.42885
   N       15.80014         7.84544        -1.09371
   C       17.73374        10.46871        -0.06456
   N       18.66206        11.03327        -0.43168
   C       17.25439        12.18510         2.58741
   C       17.07493        12.93245         3.73479
   S       15.70588        12.37688         4.68487
   C       17.84363        14.04342         4.18475
   C       18.86592        14.67712         3.53761
   C       19.41649        15.75839         4.26986
   C       20.45241        16.62915         3.88121
   C       21.03753        16.54759         2.55798
   C       20.38897        16.38946         1.36696
   C       21.27224        16.35572         0.26614
   C       22.59025        16.47825         0.59747
   S       22.75885        16.65135         2.31195
   C       23.77775        16.46974        -0.29330
  Cl       20.71383        16.17798        -1.35372
   C       20.85359        17.57549         4.81903
   C       20.23990        17.72539         6.08551
   C       19.17408        16.88560         6.45748
   C       18.80344        15.91025         5.53717
   S       17.52080        14.75247         5.75481
   C       18.47078        17.01690         7.71904
   C       18.00584        16.01836         8.52519
   C       17.30797        16.50545         9.65187
   C       17.21865        17.86460         9.71871
   S       18.02448        18.57540         8.36082
   C       16.55959        18.70690        10.74852
  Cl       16.63099        15.45330        10.83556
   C       20.85011        18.76945         6.84007
   C       21.84559        19.38770         6.17272
   S       22.12017        18.74997         4.59085
   H       -3.36202        -5.19825         2.11484
   H       -2.77960        -3.12735         3.58247
   H       -2.97742        -0.77586         3.25144
   H       -2.38480         1.56950         7.49829
   H       -0.67758         1.94852         7.21166
   H       -1.11478         0.48613         8.09167
   H        1.03251        -6.07067         0.15279
   H        3.43292        -5.74067        -4.08937
   H        4.18635        -4.17380        -3.73791
   H        2.62996        -4.23513        -4.56109
   H        3.47080        -2.01662         0.28288
   H        5.30801        -0.52794        -0.08730
   H        9.96490         3.53862         0.40525
   H        9.09067         6.17149         4.29293
   H       10.86752         7.94349         4.57618
   H       12.58292         4.93181         1.49444
   H       11.22852         6.46964         0.17730
   H       13.97450         7.78031         0.95235
   H       18.04307        12.37035         1.88216
   H       19.22956        14.37300         2.57425
   H       19.32037        16.34366         1.26535
   H       24.37050        15.56893        -0.13380
   H       24.41387        17.33011        -0.09197
   H       23.45688        16.49728        -1.33165
   H       18.17838        14.97236         8.35339
   H       15.73985        19.27691        10.31167
   H       17.26805        19.41432        11.17782
   H       16.16582        18.07434        11.54017
   H       20.55744        19.03235         7.83930
   H       22.46146        20.19685         6.51324
*
