# ORCA input file
# SCF done       -296.485173346511          0.000161593073
! CAM-B3LYP def2-SVP def2/J RIJCOSX Grid4 TightSCF
%maxcore 5000
%tddft
    Mode sTDDFT
    Ethresh 5.0
    maxcore 5000
end

%pal
  nprocs 6
  end
* xyz 0 1
   C       13.73202         1.73258         1.30551
   C       13.87607         2.11066         0.01976
   C       12.65420         2.05970        -0.71465
   C       12.42085         2.41566        -2.05433
   C       13.47694         2.99063        -2.87085
   C       14.76106         2.56960        -3.04331
   C       15.53906         3.47986        -3.79630
   C       14.86898         4.59716        -4.19787
   S       13.22026         4.51751        -3.67324
   C       15.38445         5.79579        -4.90685
  Cl       17.20531         3.19999        -4.13880
   C       11.11372         2.29490        -2.50759
   C       10.04158         1.83795        -1.70887
   C       10.26346         1.54074        -0.35557
   C       11.57525         1.64700         0.09972
   S       12.10844         1.30750         1.72431
   C        9.18595         1.21896         0.56121
   C        8.96120         1.75599         1.79496
   C        7.81514         1.21875         2.41998
   C        7.16450         0.26750         1.69095
   S        7.97757         0.02977         0.18199
   C        5.93182        -0.48534         2.03412
  Cl        7.29201         1.72462         3.97889
   C        8.80201         1.89516        -2.40892
   C        8.90020         2.38852        -3.66853
   S       10.56736         2.73857        -4.09579
   C        7.79920         2.95809        -4.50401
   C        6.39140         2.63561        -4.03637
   C        6.16295         3.22068        -2.72426
   C        7.00548         4.34581        -2.53777
   S        7.87179         4.76984        -4.01906
   C        7.20344         4.99516        -1.34573
   C        8.19140         6.11614        -1.22150
   C        9.57921         5.55941        -0.89593
   C        6.50218         4.48208        -0.24185
   C        5.63082         3.39164        -0.42490
   C        5.43361         2.72911        -1.63895
   C        4.49963         1.55507        -1.67002
   C        5.14488         0.22743        -2.06227
   S        4.88925         2.93618         1.08920
   C        5.75463         4.17355         1.92488
   C        6.55318         4.90243         1.11953
   C        5.55719         2.00267        -4.89612
   C        6.03697         1.13841        -5.97922
   C        4.97588         0.25050        -6.43708
   C        3.72111         0.63031        -5.89105
   S        3.82480         1.95497        -4.74407
   C        2.50462         0.06020        -6.19845
   C        1.22684         0.55924        -5.59345
   C        0.59421         1.63524        -6.47766
   C        2.51809        -0.97136        -7.14467
   C        3.75281        -1.36967        -7.68732
   C        4.98206        -0.80210        -7.35854
   C        6.19182        -1.35504        -8.04446
   C        6.49941        -0.57567        -9.32291
   S        3.53429        -2.66890        -8.83452
   C        1.82669        -2.65008        -8.57325
   C        1.43050        -1.72612        -7.67431
   C        7.32150         1.39303        -6.35516
   C        7.88797         2.75994        -6.02183
   C        9.26022         2.84533        -6.61422
   C       10.03511         3.99202        -6.75711
   C        9.57251         5.33164        -6.43697
   C       10.19981         6.25052        -5.65065
   C        9.48297         7.46429        -5.56692
   C        8.33451         7.49748        -6.30067
   S        8.10990         5.98676        -7.11417
   C        7.34575         8.59617        -6.43623
  Cl       10.02597         8.78273        -4.60567
   C       11.35234         3.80716        -7.19089
   C       11.89561         2.54399        -7.48954
   C       11.05529         1.41045        -7.48973
   C        9.75689         1.60973        -7.04400
   S        8.54063         0.34769        -7.02205
   C       11.53702         0.12698        -7.95383
   C       12.36373        -0.11839        -9.01289
   C       12.63299        -1.49311        -9.18594
   C       12.02995        -2.30628        -8.27131
   S       11.09367        -1.36095        -7.16330
   C       12.09943        -3.78419        -8.14937
  Cl       13.63830        -2.07859       -10.45701
   C       13.28490         2.61571        -7.75939
   C       13.76956         3.88719        -7.74653
   S       12.52925         5.06828        -7.38115
   C       15.12440         4.31160        -7.91562
   C       15.57674         5.52520        -8.33087
   C       16.99019         5.64574        -8.29108
   C       17.77433         6.76078        -8.63606
   C       17.15838         7.99652        -9.07950
   C       16.07931         8.63707        -8.54370
   C       15.74056         9.81324        -9.24850
   C       16.54072        10.07916       -10.32060
   S       17.75914         8.85745       -10.46945
   C       16.46907        11.21024       -11.27975
  Cl       14.41924        10.81459        -8.77816
   C       19.15236         6.61252        -8.51783
   C       19.76556         5.44637        -8.00150
   C       18.97991         4.34492        -7.61797
   C       17.60673         4.46093        -7.82147
   S       16.42524         3.23006        -7.47244
   C       19.53294         3.17146        -6.97224
   C       19.14609         1.86907        -7.10347
   C       19.83243         1.00495        -6.22287
   C       20.73410         1.62435        -5.40823
   S       20.75402         3.32326        -5.73595
   C       21.60537         1.03364        -4.36097
  Cl       19.54202        -0.69198        -6.19039
   C       21.18521         5.57603        -7.96730
   C       21.61468         6.77392        -8.41244
   S       20.33753         7.82972        -8.90336
   H       14.48656         1.67886         2.06571
   H       14.80936         2.42848        -0.40670
   H       15.14270         1.63721        -2.66953
   H       16.35454         5.58088        -5.34927
   H       15.50237         6.62394        -4.20659
   H       14.69180         6.11083        -5.68530
   H        9.56869         2.52355         2.23734
   H        5.95163        -1.47689         1.58792
   H        5.05079         0.04108         1.66380
   H        5.84361        -0.57629         3.11453
   H        7.87202         1.60683        -1.95805
   H        7.87783         6.81101        -0.44149
   H        8.23751         6.66169        -2.16689
   H        9.55041         4.96655         0.01657
   H       10.29211         6.36990        -0.76695
   H        9.92840         4.92214        -1.70521
   H        3.68327         1.77367        -2.36160
   H        4.05831         1.44523        -0.67678
   H        5.65229         0.29454        -3.02000
   H        4.37965        -0.54178        -2.13443
   H        5.87061        -0.08067        -1.31473
   H        5.60748         4.27377         2.98228
   H        7.16682         5.71141         1.47231
   H        1.43426         0.98177        -4.60754
   H        0.52883        -0.26983        -5.46761
   H        1.27125         2.47972        -6.58282
   H       -0.33455         1.98898        -6.03687
   H        0.38229         1.23814        -7.46802
   H        5.99935        -2.39789        -8.30817
   H        7.04360        -1.34275        -7.36859
   H        5.68991        -0.69908       -10.03873
   H        7.42057        -0.93866        -9.77102
   H        6.61053         0.48485        -9.11148
   H        1.21782        -3.34296        -9.12081
   H        0.40373        -1.57595        -7.39417
   H        7.22881         3.51643        -6.46952
   H       11.10499         6.05594        -5.10550
   H        6.43596         8.35869        -5.88392
   H        7.07688         8.74518        -7.48051
   H        7.76426         9.51749        -6.03826
   H       12.73517         0.64192        -9.67472
   H       11.09898        -4.21388        -8.12770
   H       12.60699        -4.06968        -7.22796
   H       12.64667        -4.19683        -8.99328
   H       13.90827         1.75806        -7.93454
   H       14.91800         6.30201        -8.67333
   H       15.56565         8.31455        -7.65699
   H       16.31874        10.84364       -12.29474
   H       17.39472        11.78451       -11.26485
   H       15.64220        11.86414       -11.01412
   H       18.42538         1.52072        -7.81950
   H       21.59962        -0.05026        -4.44765
   H       21.24723         1.30624        -3.36759
   H       22.62680         1.39681        -4.46092
   H       21.84662         4.79660        -7.63800
   H       22.62603         7.12060        -8.49565
*
