# ORCA input file
# SCF done       -184.711175001266          0.000822033484
! CAM-B3LYP def2-SVP def2/J RIJCOSX Grid4 TightSCF
%maxcore 5000
%tddft
    Mode sTDDFT
    Ethresh 5.0
    maxcore 5000
end

%pal
  nprocs 6
  end
* xyz 0 1
   C        3.42073         4.54315         0.87614
   C        2.68862         4.06218         1.92878
   C        2.97268         4.34841         3.28012
   N        3.16566         4.53627         4.39535
   C        1.62434         3.15104         1.78226
   N        0.77306         2.38391         1.70077
   C        4.67708         5.27137         0.99207
   C        5.40747         5.11470        -0.22340
   C        6.65027         5.65723        -0.38452
   C        7.22030         6.40019         0.67393
   C        6.48398         6.57845         1.88158
   C        5.20191         6.00060         2.02422
   C        7.06092         7.33095         2.92463
   C        8.30780         7.87722         2.78662
   C        9.03330         7.69905         1.59906
   C        8.50122         6.97694         0.56542
   C        4.60222         4.33638        -1.17983
   O        4.90538         3.95496        -2.28687
   C        3.27404         4.16918        -0.51870
   C        2.18785         3.83164        -1.26157
   C        0.82708         4.03320        -0.92780
   S        0.33142         5.26400         0.20560
   C       -1.35377         4.87878         0.07438
   C       -1.53199         3.84567        -0.85442
   C       -0.29935         3.38574        -1.41276
   N       -0.56984         2.36455        -2.26095
   C       -1.92880         2.16612        -2.25535
   N       -2.48901         1.15845        -3.06576
   O       -1.70716         0.50952        -3.74013
   O       -3.69232         1.00846        -3.03909
   C       -2.56008         3.05111        -1.40768
   C       -2.36346         5.56272         0.79222
   C       -2.28216         6.30918         1.96176
   C       -1.06222         6.39267         2.77562
   O        0.04828         6.50744         2.31268
   O       -1.22879         6.32765         4.10464
   C       -3.54557         6.85345         2.35869
   C       -4.55640         6.45898         1.52090
   S       -4.01649         5.46317         0.24295
   C       -3.73882         7.80373         3.42750
   S       -5.26871         7.92104         4.24930
   C       -4.80892         9.32740         5.17555
   C       -3.48549         9.65610         4.88340
   C       -2.89705         8.79917         3.89416
   N       -1.62433         9.22414         3.67098
   C       -1.38648        10.27891         4.51692
   N       -0.12509        10.91543         4.49377
   O        0.66857        10.51414         3.66171
   O        0.07608        11.80628         5.29024
   C       -2.48839        10.57184         5.28647
   C       -5.74478         9.89541         6.06414
   C       -5.80866        11.20986         6.43198
   C       -6.66216        11.76529         7.46441
   C       -7.29139        11.05884         8.45668
   C       -8.08804        11.64744         9.46074
   N       -8.75078        12.06768        10.29841
   C       -7.20092         9.66146         8.62494
   N       -7.15721         8.53113         8.82320
   C       -6.65325        13.21496         7.31857
   C       -5.77721        13.55673         6.24841
   C       -5.21258        12.33234         5.65942
   O       -4.49803        12.25891         4.68151
   C       -5.56208        14.85275         5.87739
   C       -6.22416        15.88732         6.57546
   C       -7.10818        15.55375         7.64240
   C       -7.31238        14.20167         8.00267
   C       -7.77014        16.59399         8.32541
   C       -7.56813        17.90136         7.97461
   C       -6.69595        18.22852         6.92574
   C       -6.03754        17.24285         6.24134
   H        7.19338         5.52227        -1.30812
   H        4.65577         6.16040         2.94073
   H        6.49875         7.46319         3.83712
   H        8.74239         8.44981         3.59219
   H       10.01561         8.13768         1.50693
   H        9.05523         6.83783        -0.35143
   H        2.39583         3.43841        -2.25221
   H        0.06940         1.80221        -2.80181
   H       -3.61433         3.09322        -1.22645
   H       -2.14222         6.15462         4.37129
   H       -5.58912         6.73883         1.58511
   H       -0.91701         8.85808         3.05058
   H       -2.54777        11.34377         6.02389
   H       -6.50051         9.21474         6.43756
   H       -4.89218        15.08547         5.06300
   H       -7.99298        13.98052         8.80956
   H       -8.43948        16.33761         9.13338
   H       -8.07952        18.69097         8.50426
   H       -6.54842        19.26511         6.66236
   H       -5.36474        17.48833         5.43279
*
