# ORCA input file
# SCF done       -194.883546082677          0.000673296318
! CAM-B3LYP def2-SVP def2/J RIJCOSX Grid4 TightSCF
%maxcore 5000
%tddft
    Mode sTDDFT
    Ethresh 5.0
    maxcore 5000
end

%pal
  nprocs 6
  end
* xyz 0 1
   C        1.98748         2.03534        -1.23374
   C        2.17972         0.89181        -1.94780
   C        2.20720        -0.21637        -1.02521
   C        2.06953         0.32554         0.31781
   O        2.11365        -0.15966         1.42255
   N        1.90907         1.70778         0.08639
   C        2.43015        -1.34642        -1.76678
   O        2.57474        -1.02117        -3.08516
   C        2.41304         0.35413        -3.27138
   O        2.48641         0.85525        -4.35666
   C        2.54864        -2.72117        -1.38693
   C        3.25989        -3.63941        -2.14759
   C        3.44090        -4.95464        -1.73457
   C        2.92328        -5.45445        -0.54529
   C        2.14986        -4.55543         0.23933
   C        1.94918        -3.19807        -0.19535
   N        1.12852        -2.52995         0.60767
   S        0.70028        -3.47937         1.82096
   N        1.49569        -4.80475         1.37416
   C        3.12609        -6.81630        -0.14527
   C        2.67681        -7.42743         0.99044
   C        3.00641        -8.79928         1.07332
   C        2.68482        -9.70638         2.10473
   C        2.01438        -9.29129         3.31959
   C        1.06446        -9.96927         4.02995
   C        0.66663        -9.28614         5.19852
   C        1.30634        -8.09830         5.40541
   S        2.42731        -7.79939         4.12254
   C        1.14249        -7.13522         6.52332
  Cl       -0.53010        -9.91386         6.26543
   C        3.05607       -11.03061         1.89913
   C        3.77147       -11.47492         0.75668
   C        4.13477       -10.55713        -0.25098
   C        3.71530        -9.24327        -0.07147
   S        3.99889        -7.93272        -1.18003
   C        4.90987       -10.94290        -1.41261
   C        4.75923       -10.51587        -2.70092
   C        5.73123       -11.05374        -3.57137
   C        6.63591       -11.87872        -2.96916
   S        6.28072       -12.01228        -1.28031
   C        7.78617       -12.59753        -3.57278
  Cl        5.75817       -10.68799        -5.25388
   C        3.99749       -12.86973         0.78543
   C        3.50021       -13.47842         1.90522
   S        2.73495       -12.34747         2.99375
   C        3.51469       -14.86817         2.18415
   S        2.71840       -15.52461         3.63623
   C        3.16766       -17.08338         3.08585
   C        3.87617       -16.99156         1.88144
   N        4.05403       -15.76472         1.40521
   C        4.25934       -18.34888         1.38374
   C        3.66147       -19.22420         2.44592
   C        3.03738       -18.44704         3.42703
   S        2.31871       -19.40015         4.65581
   C        2.84566       -20.86633         3.84661
   C        3.55298       -20.58697         2.68618
   C        2.48774       -22.11563         4.41269
   C        2.77670       -23.32904         3.88420
   C        2.37275       -24.56615         4.44663
   C        2.62334       -25.82671         3.93157
   C        2.06740       -26.83818         4.71561
   C        1.38883       -26.34664         5.83819
   S        1.43379       -24.64291         5.93301
   C        0.85753       -27.45062         6.56338
   C        1.20211       -28.63229         5.89619
   C        1.97301       -28.29414         4.71541
   C        2.50044       -29.15111         3.79353
   C        3.23484       -28.69663         2.67893
   N        3.83076       -28.33112         1.76963
   C        2.34540       -30.54953         3.89107
   N        2.22986       -31.68800         3.96746
   C        0.70993       -29.78037         6.54725
   C        0.01624       -29.45358         7.67168
   S       -0.05890       -27.74704         7.97227
   H        1.90487         3.05247        -1.56799
   H        1.78703         2.36779         0.83889
   H        3.70442        -3.30603        -3.07252
   H        4.01845        -5.61956        -2.36020
   H        2.10565        -6.89245         1.72505
   H        0.62863       -10.90134         3.72271
   H        0.30296        -7.43587         7.14524
   H        0.96384        -6.13134         6.14119
   H        2.04153        -7.10485         7.13905
   H        3.96731        -9.87257        -3.03580
   H        7.76090       -12.48532        -4.65388
   H        7.75156       -13.65669        -3.32223
   H        8.72835       -12.19520        -3.20026
   H        4.48400       -13.43054         0.01052
   H        5.34255       -18.46272         1.31328
   H        3.83937       -18.54998         0.39668
   H        3.96108       -21.35137         2.05109
   H        1.92179       -22.07108         5.33495
   H        3.34083       -23.40306         2.96532
   H        3.18230       -25.98396         3.02706
   H        0.85677       -30.78958         6.20843
   H       -0.46807       -30.11500         8.36165
*
