# ORCA input file
# SCF done       -192.821973409129          0.000495357425
! CAM-B3LYP def2-SVP def2/J RIJCOSX Grid4 TightSCF
%maxcore 5000
%tddft
    Mode sTDDFT
    Ethresh 5.0
    maxcore 5000
end

%pal
  nprocs 6
  end
* xyz 0 1
   C       -0.81062        -0.92873        -0.66069
   S        0.73387        -0.20371        -0.84015
   C        0.10175         1.36922        -0.41849
   C       -1.25548         1.28998        -0.17575
   C       -1.76647        -0.02726        -0.30770
   C       -3.19650        -0.31872         0.01663
   C       -3.45186         0.04296         1.47091
   S       -2.97785         1.78846         1.79782
   O       -4.17485         2.55977         1.99049
   O       -1.99856         1.79572         2.84799
   C       -2.16642         2.36823         0.24999
   C        0.94329         2.51584        -0.36557
   C        2.27983         2.47478        -0.56107
   C        3.15508         3.59320        -0.51564
   C        2.87280         4.93674        -0.34303
   C        4.02531         5.72347        -0.35843
   C        5.19865         4.97249        -0.53896
   S        4.88000         3.30485        -0.69924
   C        6.30508         5.85887        -0.53655
   C        5.83689         7.16847        -0.35754
   C        4.38638         7.12871        -0.24136
   C        3.54257         8.18553        -0.06693
   C        2.14433         8.01776         0.01653
   N        1.00753         7.88001         0.07632
   C        4.01097         9.51286         0.03201
   N        4.38908        10.59206         0.11361
   C        6.86332         8.11419        -0.34128
   C        8.11289         7.54130        -0.49066
   S        8.00537         5.79393        -0.67364
   C        9.34770         8.25067        -0.54623
   S        9.28180         9.97362        -0.81287
   C       11.01710        10.11400        -0.80038
   C       11.59722         8.87835        -0.56648
   C       10.65950         7.83050        -0.43221
   C       11.14968         6.45822        -0.08781
   C       11.80912         6.49975         1.28003
   S       13.19753         7.69356         1.25011
   O       13.01330         8.63504         2.31788
   O       14.43554         6.96441         1.20664
   C       13.03022         8.59632        -0.34462
   C       11.57457        11.40289        -1.04174
   C       12.81744        11.65874        -1.51132
   C       13.34370        12.95935        -1.74013
   C       12.75863        14.20124        -1.56804
   C       13.62372        15.24203        -1.90641
   C       14.88410        14.79231        -2.33555
   S       14.99689        13.09158        -2.33061
   C       15.68471        15.92072        -2.64857
   C       14.93281        17.08257        -2.41877
   C       13.61077        16.69639        -1.94862
   C       12.57702        17.52373        -1.62301
   C       11.33072        17.02838        -1.18474
   N       10.31790        16.62434        -0.83035
   C       12.68326        18.92807        -1.70656
   N       12.76585        20.06981        -1.77234
   C       15.64280        18.25099        -2.69381
   C       16.93423        17.99658        -3.12070
   S       17.26388        16.27053        -3.19568
   C       17.88363        18.98414        -3.51145
   S       17.30918        20.61285        -3.72995
   C       18.88059        21.15211        -4.21541
   C       19.79506        20.11413        -4.20161
   C       19.23878        18.88319        -3.78475
   C       19.98780        17.59078        -3.65277
   C       21.48369        17.77885        -3.52124
   S       22.00240        18.72127        -4.97918
   O       23.42588        18.91223        -4.96801
   O       21.41122        18.13837        -6.14944
   C       21.21277        20.31568        -4.61825
   C       19.11898        22.52709        -4.56038
   C       18.18837        23.47885        -4.54864
   H       -0.92153        -1.98223        -0.82380
   H       -3.41811        -1.37442        -0.15323
   H       -3.85409         0.27312        -0.62611
   H       -2.84380        -0.55270         2.14599
   H       -4.50164        -0.03030         1.73861
   H       -1.66891         3.30036         0.49645
   H       -2.97903         2.54758        -0.45101
   H        0.45737         3.45485        -0.14479
   H        2.74712         1.51919        -0.76321
   H        1.87664         5.31769        -0.21662
   H        6.72502         9.17319        -0.21739
   H       11.88236         6.13088        -0.83066
   H       10.33790         5.73173        -0.08065
   H       12.24332         5.54423         1.55820
   H       11.12704         6.84937         2.04963
   H       13.47235         7.94785        -1.09803
   H       13.62833         9.49102        -0.21023
   H       10.89792        12.22920        -0.87297
   H       13.47887        10.84457        -1.76859
   H       11.75286        14.33581        -1.21631
   H       15.25523        19.24811        -2.58798
   H       19.80120        16.98711        -4.54741
   H       19.61066        17.03581        -2.78831
   H       22.01353        16.83077        -3.51536
   H       21.76795        18.36895        -2.65456
   H       21.28237        20.90988        -5.52713
   H       21.82100        20.77556        -3.84003
   H       20.13603        22.76792        -4.83773
   H       17.16861        23.26616        -4.27312
   H       18.41856        24.49457        -4.81524
*
