# ORCA input file
# SCF done       -189.192354541319          0.000359049035
! CAM-B3LYP def2-SVP def2/J RIJCOSX Grid4 TightSCF
%maxcore 5000
%tddft
    Mode sTDDFT
    Ethresh 5.0
    maxcore 5000
end

%pal
  nprocs 6
  end
* xyz 0 1
   C       -1.80935         0.60120        -1.65335
   C       -1.31468         1.86790        -1.91691
   C       -0.95212         2.67754        -0.83861
   C       -0.44155         3.97605        -1.08688
   N       -0.02886         5.02323        -1.29548
   C       -1.08236         2.22933         0.49004
   C       -0.70762         3.07640         1.56078
   N       -0.40732         3.74722         2.43878
   C       -1.57634         0.95044         0.75067
   C       -1.92924         0.16121        -0.32306
   C       -2.46293        -1.21986        -0.29772
   O       -2.65264        -1.87971         0.70006
   C       -2.63834        -1.60226        -1.71572
   C       -2.27881        -0.46303        -2.54119
   C       -2.42062        -0.34352        -3.89889
   C       -2.06877         0.81036        -4.63318
   N       -1.79829         1.71333        -5.28722
   C       -2.96383        -1.32020        -4.76190
   N       -3.41012        -2.05062        -5.52733
   C       -2.96139        -2.83816        -2.21700
   C       -3.44401        -3.99186        -1.57785
   C       -3.92276        -4.22559        -0.29143
   C       -4.37893        -5.52330        -0.13015
   C       -4.24461        -6.31202        -1.29921
   S       -3.57397        -5.44134        -2.59254
   C       -4.73773        -7.60693        -1.02450
   C       -5.19274        -7.64495         0.30684
   C       -4.98284        -6.33724         0.91212
   C       -5.30583        -5.96147         2.18132
   C       -5.88871        -6.86500         3.09708
   N       -6.35942        -7.60187         3.83803
   C       -5.10527        -4.65161         2.67121
   N       -4.97108        -3.59279         3.08778
   C       -5.72592        -8.88089         0.66213
   C       -5.67695        -9.78658        -0.38488
   S       -4.95706        -9.10008        -1.83039
   C       -6.15211       -11.12192        -0.38242
   C       -6.07242       -12.06141        -1.39318
   C       -6.66665       -13.27526        -1.06454
   C       -7.21854       -13.28884         0.20273
   S       -6.98172       -11.76396         1.00587
   C       -7.92042       -14.34064         0.84337
   C       -8.51317       -14.30946         2.09463
   C       -9.14625       -15.51125         2.40011
   C       -9.02994       -16.47003         1.37607
   S       -8.14168       -15.88468         0.03810
   C       -9.70489       -17.64794         1.77574
   C      -10.25785       -17.42711         3.05657
   C       -9.91335       -16.08610         3.49418
   C      -10.22157       -15.51462         4.69300
   C      -10.95516       -16.22252         5.66917
   N      -11.55467       -16.81956         6.44286
   C       -9.82974       -14.19960         5.02248
   N       -9.51512       -13.12780         5.27844
   C      -10.93337       -18.53032         3.55223
   C      -10.90147       -19.60732         2.67385
   S      -10.03779       -19.20884         1.18928
   C      -11.49338       -20.87664         2.80921
   C      -11.98608       -21.47792         3.93245
   C      -12.95473       -22.59506         3.77026
   O      -13.21027       -23.19436         2.75341
   C      -13.57187       -22.76775         5.10584
   C      -14.62343       -23.58128         5.47036
   C      -15.06304       -23.53344         6.79472
   C      -14.44402       -22.66705         7.71627
   C      -13.37145       -21.85607         7.33941
   C      -12.93239       -21.91689         6.02858
   C      -11.83800       -21.22039         5.34788
   C      -10.75299       -20.67667         5.98378
   C       -9.59908       -20.22325         5.31434
   N       -8.63482       -19.86396         4.80590
   C      -10.62072       -20.59756         7.38729
   N      -10.46453       -20.51993         8.52064
   C      -14.92299       -22.61523         9.04923
   N      -15.30957       -22.56788        10.12554
   C      -16.14178       -24.35156         7.20938
   N      -17.01663       -25.02003         7.52369
   H       -1.19628         2.24698        -2.91924
   H       -1.68186         0.58741         1.76175
   H       -2.82925        -2.96726        -3.28493
   H       -3.92245        -3.46971         0.47269
   H       -6.13466        -9.13056         1.62474
   H       -5.59533       -11.85932        -2.33574
   H       -6.70561       -14.12522        -1.72248
   H       -8.47844       -13.44447         2.73253
   H      -11.47129       -18.54850         4.48213
   H      -11.65353       -21.43373         1.89098
   H      -15.09519       -24.23410         4.75179
   H      -12.92476       -21.19682         8.06698
*
