# ORCA input file
# SCF done       -191.113497612921          0.000829557890
! CAM-B3LYP def2-SVP def2/J RIJCOSX Grid4 TightSCF
%maxcore 5000
%tddft
    Mode sTDDFT
    Ethresh 5.0
    maxcore 5000
end

%pal
  nprocs 6
  end
* xyz 0 1
   C       -0.59279         5.99128         5.64689
   C        0.51756         5.41057         5.08665
   C        1.78921         5.38553         5.69545
   N        2.84868         5.32641         6.13414
   C        0.56421         4.74524         3.84470
   N        0.69156         4.18522         2.84940
   C       -0.62877         6.65138         6.94867
   C       -1.95810         7.06918         7.20900
   C       -2.31836         7.72727         8.35949
   C       -1.31788         7.99113         9.30016
   C        0.00673         7.57266         9.03230
   C        0.37031         6.90368         7.86868
   S        1.07671         8.00710        10.32797
   C       -0.23130         8.73038        11.19840
   C       -1.41711         8.65389        10.55597
   C       -2.81130         6.69191         6.07148
   O       -4.01331         6.88325         5.97831
   C       -1.93024         6.05166         5.09120
   C       -2.30159         5.62710         3.83883
   C       -3.54600         5.66695         3.19867
   C       -3.70973         5.23634         1.87719
   C       -5.00494         5.37888         1.42694
   C       -5.87241         5.91332         2.40313
   S       -5.05915         6.25061         3.88435
   C       -7.16419         6.06367         1.90087
   C       -7.28688         5.64492         0.55671
   S       -5.78806         5.05660        -0.10770
   C       -8.60517         5.83982         0.18009
   C       -9.25805         6.39448         1.29212
   N       -8.37219         6.51094         2.33043
   C       -8.62607         6.84675         3.70429
   C      -10.63268         6.81760         1.29963
   C      -11.09876         8.00067         1.91675
   C      -12.47671         8.41452         1.85572
   N      -12.85338         9.54097         2.49561
   C      -11.95166        10.26646         3.09273
   C      -10.58950         9.90817         3.07136
   N      -10.18915         8.80117         2.51584
   C      -13.44325         7.68303         1.11901
   C      -12.96277         6.52517         0.47533
   C      -11.58854         6.09813         0.55942
   N      -11.38504         4.96486        -0.12096
   S      -12.75849         4.50122        -0.79913
   N      -13.69439         5.69418        -0.26988
   C      -14.80506         8.07135         0.96755
   C      -15.47117         9.13689         1.54895
   C      -16.79172         9.22545         1.12841
   C      -17.15736         8.22892         0.20959
   S      -15.84439         7.15311        -0.11142
   C      -18.47509         8.38650        -0.21814
   C      -19.12075         9.48579         0.39671
   S      -18.08207        10.34838         1.49344
   C      -20.41835         9.52443        -0.07708
   C      -20.53382         8.48720        -1.02117
   N      -19.33742         7.79467        -1.07645
   C      -19.06156         6.54038        -1.72006
   C      -21.69868         8.23242        -1.77533
   C      -21.88407         7.65572        -3.00028
   C      -20.99765         7.38102        -4.10526
   C      -19.82258         8.03575        -4.38506
   C      -19.02063         7.76705        -5.51100
   N      -18.31204         7.56587        -6.39219
   C      -19.33061         9.11861        -3.62933
   N      -18.91243        10.03645        -3.08111
   C      -21.69795         6.48441        -5.01952
   C      -23.05119         6.38388        -4.60570
   C      -23.23905         7.16572        -3.36910
   O      -24.26475         7.34387        -2.74974
   C      -23.98112         5.65229        -5.30332
   C      -23.55519         4.98061        -6.45390
   C      -22.19919         5.07389        -6.84778
   C      -21.25848         5.82115        -6.14773
   S      -21.89922         4.15816        -8.29097
   C      -23.55865         3.67448        -8.35815
   C      -24.30777         4.16827        -7.34851
   H       -3.34003         8.03153         8.52640
   H        1.39437         6.60880         7.71291
   H       -0.02727         9.17533        12.15288
   H       -2.33880         9.04842        10.94399
   H       -1.52103         5.20870         3.21505
   H       -2.89526         4.84671         1.29363
   H       -9.05691         5.64354        -0.76949
   H       -9.66839         6.65152         3.94846
   H       -8.40917         7.89827         3.89476
   H       -7.98405         6.23423         4.33886
   H      -12.30071        11.15525         3.60045
   H       -9.82850        10.53217         3.52022
   H      -14.99141         9.80654         2.23596
   H      -21.18593        10.23326         0.15829
   H      -19.99339         6.04762        -1.99260
   H      -18.50477         5.90194        -1.03185
   H      -18.45114         6.68075        -2.61627
   H      -22.62176         8.52491        -1.28203
   H      -25.00725         5.60324        -4.97366
   H      -20.23561         5.86216        -6.48415
   H      -23.87468         3.04024        -9.16343
   H      -25.35819         3.97458        -7.22761
*
