# ORCA input file
# SCF done       -207.282832481933          0.000401340041
! CAM-B3LYP def2-SVP def2/J RIJCOSX Grid4 TightSCF
%maxcore 5000
%tddft
    Mode sTDDFT
    Ethresh 5.0
    maxcore 5000
end

%pal
  nprocs 6
  end
* xyz 0 1
   C       -3.07784         0.25064         8.05617
   C       -1.87141         0.86445         7.83917
   C       -0.69016         0.54441         8.54061
   N        0.30009         0.32959         9.08017
   C       -1.61605         1.84463         6.85614
   N       -1.31548         2.62037         6.06453
   C       -3.30350        -0.85788         8.97543
   C       -4.60748        -1.36122         8.75518
   C       -5.12335        -2.41975         9.46248
   C       -4.31494        -3.00403        10.44287
   C       -3.01486        -2.48929        10.66162
   C       -2.49111        -1.42323         9.94018
   S       -2.19091        -3.35108        11.92537
   C       -3.58414        -4.37764        12.13894
   C       -4.61443        -4.09188        11.30794
  Br       -3.54850        -5.72811        13.43991
   C       -5.27026        -0.57436         7.69647
   O       -6.37529        -0.80172         7.24413
   C       -4.32394         0.50950         7.35350
   C       -4.56379         1.66575         6.65476
   C       -5.68146         2.07839         5.91023
   C       -6.79667         1.38103         5.45945
   C       -7.65667         2.19852         4.74555
   C       -7.21264         3.54899         4.63307
   S       -5.69903         3.77922         5.40881
   C       -8.18703         4.23381         3.91904
   C       -9.19712         3.28355         3.60622
   N       -8.86496         2.05832         4.11764
   C       -9.62587         0.84687         3.98867
   C      -10.25813         3.82057         2.89274
   C      -10.08158         5.17994         2.65995
   S       -8.57988         5.80874         3.32299
   C      -10.98254         6.04034         1.98216
   C      -10.71146         7.42161         1.84903
   C      -11.62091         8.32992         1.20256
   N      -11.31247         9.62852         1.12736
   C      -10.18744        10.06862         1.63481
   C       -9.27733         9.16245         2.27063
   N       -9.56552         7.88711         2.35667
   C       -8.05843         9.63786         2.81480
   N       -7.08428        10.05739         3.24659
   C       -9.88097        11.44958         1.55231
   N       -9.60118        12.55908         1.50588
   C      -12.84738         7.90720         0.64003
   C      -13.11452         6.52073         0.75015
   C      -12.20393         5.60815         1.41001
   N      -12.66991         4.35913         1.39692
   S      -14.08615         4.32423         0.64261
   N      -14.19432         5.88686         0.29223
   C      -13.72880         8.83464         0.02857
   C      -14.95426         8.54191        -0.55973
   C      -15.57314         9.68377        -1.04595
   C      -14.81765        10.86864        -0.83063
   S      -13.32550        10.54429        -0.02133
   C      -15.56568        11.91279        -1.35851
   C      -16.75919        11.33962        -1.88184
   N      -16.75067         9.98676        -1.67628
   C      -17.74923         9.06410        -2.13987
   C      -17.61236        12.26247        -2.46441
   C      -17.09204        13.55218        -2.40691
   S      -15.53425        13.61410        -1.58076
   C      -17.65395        14.76694        -2.83727
   C      -18.70992        15.00814        -3.67198
   C      -19.43554        14.20036        -4.62157
   C      -18.95251        13.13174        -5.33676
   C      -19.69861        12.42738        -6.30209
   N      -20.26574        11.79511        -7.07496
   C      -17.63255        12.65009        -5.24674
   N      -16.56684        12.22270        -5.23389
   C      -20.70165        14.87745        -4.89354
   C      -20.65956        16.16920        -4.31218
   C      -19.37989        16.33454        -3.59329
   O      -18.97386        17.31860        -3.01930
   C      -21.69421        17.06464        -4.42824
   C      -22.82893        16.66180        -5.14120
   C      -22.86645        15.36486        -5.70600
   C      -21.81538        14.46194        -5.59691
   S      -24.36600        15.07044        -6.53226
   C      -24.91387        16.67320        -6.11743
   C      -24.02173        17.39261        -5.39624
  Br      -26.61220        17.24221        -6.67346
   H       -6.12038        -2.78321         9.26868
   H       -1.49693        -1.06435        10.14725
   H       -5.54805        -4.62416        11.30468
   H       -3.78717         2.42050         6.70733
   H       -6.94333         0.33803         5.66648
   H      -10.68776         1.06678         4.10053
   H       -9.32054         0.14906         4.76607
   H       -9.46306         0.38375         3.01127
   H      -11.12499         3.29048         2.54665
   H      -15.33403         7.53890        -0.60696
   H      -17.81215         9.08541        -3.23082
   H      -18.72660         9.32272        -1.72639
   H      -17.48189         8.06034        -1.81866
   H      -18.58171        12.03466        -2.86845
   H      -17.23694        15.66098        -2.38218
   H      -21.63177        18.04524        -3.98336
   H      -21.89146        13.48288        -6.04035
   H      -24.19568        18.39721        -5.05647
*
