# ORCA input file
# SCF done       -249.276526386368          0.000538259777
! CAM-B3LYP def2-SVP def2/J RIJCOSX Grid4 TightSCF
%maxcore 5000
%tddft
    Mode sTDDFT
    Ethresh 5.0
    maxcore 5000
end

%pal
  nprocs 6
  end
* xyz 0 1
   C       -1.63586         4.61647         9.96091
   C       -1.30758         3.28831         9.87677
   C       -0.36302         2.65429        10.71285
   N        0.38630         2.07649        11.36238
   C       -1.81879         2.36217         8.94227
   N       -2.16586         1.54823         8.20995
   C       -1.02312         5.57379        10.87267
   C       -1.51822         6.86565        10.57309
   C       -1.11922         7.99219        11.25106
   C       -0.18599         7.83565        12.28043
   C        0.29936         6.53911        12.57968
   C       -0.10333         5.40170        11.89149
   S        1.43847         6.57053        13.89065
   C        1.25273         8.29998        14.01613
   C        0.38187         8.82899        13.12355
  Br        2.22392         9.24192        15.31377
   C       -2.48888         6.78188         9.46733
   O       -3.09353         7.71473         8.98518
   C       -2.58688         5.33950         9.12688
   C       -3.47411         4.73051         8.28475
   C       -4.41208         5.26390         7.37498
   C       -4.63958         6.54934         6.89876
   C       -5.66979         6.58512         5.96847
   C       -6.24619         5.31681         5.72621
   S       -5.50374         4.08657         6.62931
   C       -7.29724         5.45922         4.78769
   C       -7.38074         6.82408         4.43337
   C       -6.36175         7.57232         5.15655
   C       -6.11916         8.91092         5.07812
   C       -5.08351         9.55446         5.79090
   N       -4.24201        10.10381         6.34150
   C       -6.90064         9.75469         4.25843
   N       -7.54584        10.43337         3.59719
   C       -8.38719         7.06280         3.51588
   C       -9.08222         5.90069         3.17040
   S       -8.45544         4.48302         4.00536
   C      -10.16706         5.90032         2.26354
   C      -11.03290         4.89708         1.82464
   C      -10.93190         3.51641         2.23165
   O      -10.07766         3.08341         2.99458
   C      -11.94884         2.63033         1.64153
   C      -12.95002         3.10242         0.75367
   C      -13.78100         2.08918         0.33430
   S      -13.36268         0.56450         1.00386
   C      -12.05800         1.27673         1.86290
   C      -11.19415         0.41721         2.73457
   F       -9.91754         0.40340         2.34344
   F      -11.22440         0.78929         4.01719
   F      -11.61450        -0.85977         2.70137
   C      -14.94832         2.18766        -0.59958
   F      -14.60618         2.64176        -1.80782
   F      -15.50083         0.97678        -0.79246
   F      -15.92097         2.97304        -0.12879
   C      -13.05676         4.51745         0.36105
   O      -13.95618         4.90713        -0.37283
   C      -12.03656         5.37115         0.91967
   C      -11.92836         6.73471         0.64041
   S      -10.58581         7.42345         1.51913
   C      -12.67386         7.60533        -0.18681
   C      -12.32280         8.94262        -0.38909
   C      -13.21470         9.60348        -1.21298
   C      -14.26928         8.76519        -1.64052
   S      -14.14397         7.17076        -1.05463
   C      -15.13328         9.53455        -2.46080
   C      -14.62781        10.84814        -2.54597
   C      -13.39487        10.92912        -1.78417
   C      -12.56751        12.00777        -1.67832
   C      -11.36968        11.96151        -0.93393
   N      -10.39890        11.91360        -0.32665
   C      -12.86723        13.22582        -2.32447
   N      -13.13286        14.20748        -2.85414
   C      -15.40441        11.67741        -3.34442
   C      -16.49785        11.01184        -3.87937
   S      -16.57030         9.33708        -3.34876
   C      -17.52285        11.52272        -4.70918
   C      -17.51900        12.64758        -5.47360
   C      -16.47474        13.54533        -5.92643
   C      -15.17013        13.22224        -6.19376
   C      -14.24512        14.11356        -6.77878
   N      -13.45929        14.79620        -7.26081
   C      -14.62168        11.93791        -6.01109
   N      -14.13762        10.90276        -5.90025
   C      -17.12146        14.79253        -6.31996
   C      -18.52503        14.59069        -6.35149
   C      -18.82835        13.21651        -5.91254
   O      -19.90298        12.66659        -5.86228
   C      -19.40294        15.57944        -6.72566
   C      -18.87195        16.82643        -7.07162
   C      -17.46994        17.02251        -7.01800
   C      -16.58082        16.02087        -6.64799
   S      -17.03304        18.64072        -7.47006
   C      -18.71378        19.02718        -7.72799
   C      -19.56128        17.99858        -7.48551
  Br      -19.19094        20.75072        -8.28973
   H       -1.51479         8.96184        10.99253
   H        0.29436         4.43797        12.16130
   H        0.14841         9.87611        13.06096
   H       -3.48851         3.64704         8.31129
   H       -4.07670         7.40048         7.23745
   H       -8.63063         8.02705         3.10539
   H      -11.44917         9.38776         0.05430
   H      -15.22039        12.72462        -3.50055
   H      -18.46791        10.98822        -4.68923
   H      -20.46588        15.39778        -6.75000
   H      -15.52195        16.21656        -6.61053
   H      -20.62860        18.06251        -7.59322
*
