# ORCA input file
# SCF done       -251.253014431121          0.000348938879
! CAM-B3LYP def2-SVP def2/J RIJCOSX Grid4 TightSCF
%maxcore 5000
%tddft
    Mode sTDDFT
    Ethresh 5.0
    maxcore 5000
end

%pal
  nprocs 6
  end
* xyz 0 1
   C       -4.75730        -0.40636         4.49334
   O       -3.56213        -0.52443         4.31463
   C       -5.43848         0.86204         4.83428
   C       -6.81577         0.63728         4.98351
   C       -7.64816         1.69709         5.30450
   C       -7.08740         2.95891         5.46914
   C       -5.71620         3.16990         5.31823
   C       -4.87747         2.11092         4.99730
  Br       -4.98284         4.89721         5.54676
  Br       -8.22505         4.40554         5.90557
   C       -7.08636        -0.78060         4.74457
   C       -8.33417        -1.34802         4.80028
   C       -9.51241        -0.63234         5.10470
   N      -10.50827        -0.11449         5.34476
   C       -8.66143        -2.70155         4.57032
   N       -9.03570        -3.77471         4.40160
   C       -5.82158        -1.42667         4.44023
   C       -5.70908        -2.77100         4.16683
   C       -4.61159        -3.57140         3.82468
   C       -3.25639        -3.30427         3.62130
   C       -2.51050        -4.41298         3.27138
   C       -3.30781        -5.57784         3.20056
   S       -4.95158        -5.28438         3.56453
   C       -2.63003        -6.75896         2.84331
   C       -1.24774        -6.61622         2.61332
  Si       -0.72768        -4.83254         2.86546
   C       -0.08552        -4.05561         1.29947
   C        0.13889        -4.80082         0.13829
   C        0.65246        -4.21241        -1.00227
   C        0.95211        -2.86069        -1.01140
   C        0.73594        -2.10128         0.12702
   C        0.22600        -2.69230         1.26674
   C        0.40733        -4.56233         4.31814
   C        1.78919        -4.72125         4.17047
   C        2.65155        -4.51470         5.22988
   C        2.15344        -4.13956         6.46697
   C        0.78918        -3.97341         6.63646
   C       -0.07185        -4.18349         5.57579
   C       -0.67382        -7.82120         2.24606
   C       -1.57545        -8.88244         2.18464
   S       -3.19051        -8.36796         2.61567
   C       -1.33697       -10.23291         1.81769
   C       -0.08617       -10.73430         1.37511
   C        0.07737       -12.11749         0.99484
   N        1.27330       -12.55775         0.59221
   C        2.29616       -11.74078         0.52944
   C        2.12892       -10.36594         0.88585
   N        0.96776        -9.91171         1.29242
   C        3.21765        -9.46141         0.81152
   N        4.10494        -8.73979         0.74935
   C        3.55595       -12.23652         0.11418
   N        4.58895       -12.60843        -0.21227
   C       -0.97646       -13.06447         1.02280
   C       -2.21976       -12.56698         1.47866
   C       -2.38242       -11.18549         1.85960
   N       -3.62931       -10.92667         2.25026
   S       -4.50803       -12.26578         2.15428
   N       -3.35908       -13.24679         1.61274
   C       -0.77275       -14.40136         0.60423
   C       -1.71228       -15.43181         0.58662
   C       -1.21810       -16.63080         0.10221
   C        0.13645       -16.50629        -0.26595
   S        0.77735       -14.93230         0.00090
   C        0.72595       -17.66936        -0.79336
   C       -0.09474       -18.81043        -0.85077
  Si       -1.81856       -18.37025        -0.25530
   C       -2.34460       -19.28108         1.28204
   C       -2.06595       -18.78902         2.56103
   C       -2.45640       -19.47641         3.69477
   C       -3.13706       -20.67690         3.57892
   C       -3.42573       -21.18392         2.32244
   C       -3.03396       -20.49412         1.19107
   C       -3.04265       -18.46283        -1.65532
   C       -2.62378       -18.45727        -2.99100
   C       -3.53903       -18.51942        -4.02499
   C       -4.89518       -18.58666        -3.75214
   C       -5.33220       -18.59123        -2.43745
   C       -4.41694       -18.52971        -1.40419
   C        0.58574       -19.89327        -1.38355
   C        1.88245       -19.59968        -1.79294
   S        2.29738       -17.93576        -1.42549
   C        2.79591       -20.49511        -2.38507
   C        3.88453       -20.20201        -3.15480
   C        4.98857       -21.18283        -3.29699
   O        4.97858       -22.34894        -2.97958
   C        6.11747       -20.40291        -3.85694
   C        5.68477       -19.09746        -4.15615
   C        4.25477       -19.00143        -3.86993
   C        3.39517       -18.09874        -4.44079
   C        1.99140       -18.21924        -4.38083
   N        0.84697       -18.31182        -4.39830
   C        3.81524       -17.01547        -5.23906
   N        4.11224       -16.11829        -5.88979
   C        6.57924       -18.16927        -4.65842
   C        7.89744       -18.56268        -4.86271
   C        8.31598       -19.86438        -4.58004
   C        7.42151       -20.79748        -4.07016
  Br       10.11010       -20.37576        -4.88234
  Br        9.12923       -17.29638        -5.53392
   H       -8.71163         1.57808         5.43059
   H       -3.81524         2.25727         4.87726
   H       -6.63502        -3.33115         4.21553
   H       -2.85072        -2.31598         3.73407
   H       -0.09014        -5.85698         0.13689
   H        0.82210        -4.80981        -1.88621
   H        1.35436        -2.40070        -1.90185
   H        0.96879        -1.04652         0.12530
   H        0.06525        -2.09530         2.15286
   H        2.18576        -5.00687         3.20662
   H        3.71490        -4.64370         5.09118
   H        2.82668        -3.97465         7.29522
   H        0.39590        -3.67680         7.59796
   H       -1.13464        -4.04616         5.71607
   H        0.36874        -7.94872         2.02325
   H       -2.72120       -15.27764         0.92252
   H       -1.53839       -17.85085         2.66020
   H       -2.23028       -19.07578         4.67239
   H       -3.44249       -21.21489         4.46414
   H       -3.95788       -22.11910         2.22621
   H       -3.26606       -20.89369         0.21408
   H       -1.56926       -18.40852        -3.22001
   H       -3.19097       -18.51668        -5.04721
   H       -5.61009       -18.63618        -4.56031
   H       -6.38892       -18.64328        -2.21856
   H       -4.76459       -18.53719        -0.38062
   H        0.15286       -20.86759        -1.52528
   H        2.65789       -21.54555        -2.14748
   H        6.28705       -17.15530        -4.88052
   H        7.73774       -21.80449        -3.84653
*
