# ORCA input file
# SCF done       -209.346535937095          0.000794102593
! CAM-B3LYP def2-SVP def2/J RIJCOSX Grid4 TightSCF
%maxcore 5000
%tddft
    Mode sTDDFT
    Ethresh 5.0
    maxcore 5000
end

%pal
  nprocs 6
  end
* xyz 0 1
   C      -12.67201         1.23870        -8.64679
   C      -12.68234         0.17486        -7.78311
   C      -12.96358        -1.15296        -8.16791
   N      -13.17413        -2.25224        -8.42243
   C      -12.44116         0.25722        -6.39554
   N      -12.27429         0.25073        -5.25953
   C      -13.01329         1.19345       -10.06227
   C      -12.98507         2.51429       -10.57915
   C      -13.27680         2.80298       -11.89043
   C      -13.61615         1.73972       -12.73256
   C      -13.63690         0.42407       -12.20984
   C      -13.33985         0.13135       -10.88377
   S      -14.07772        -0.72919       -13.42891
   C      -14.23064         0.53241       -14.60209
   C      -13.96453         1.76303       -14.11214
   C      -12.61021         3.44723        -9.50865
   O      -12.43620         4.64951        -9.61222
   C      -12.39896         2.62392        -8.30454
   C      -11.83426         3.06258        -7.13793
   C      -11.64811         4.38532        -6.69031
   S      -10.35442         4.65432        -5.54232
   C      -10.71822         6.34014        -5.41470
   C      -11.82422         6.65876        -6.20151
   C      -12.35237         5.57254        -6.91149
   S      -13.86407         5.57956        -7.78718
   C      -14.73218         7.04247        -7.26523
   O      -15.92934         7.03525        -7.33373
   C      -13.99583         8.32738        -6.96313
   O      -14.52363         9.38781        -7.15871
   S      -12.35735         8.33065        -6.31163
   C       -9.97632         7.24011        -4.61604
   C       -8.92691         6.89239        -3.83097
   C       -8.20180         7.81857        -3.04678
   O       -8.51420         9.14648        -3.05276
   C       -7.68344         9.79891        -2.23013
   C       -6.77680         8.90349        -1.66726
   C       -7.12541         7.61884        -2.18677
   O       -6.52820         6.46833        -1.91517
   C       -5.57453         9.04862        -0.84416
   O       -5.01082         8.06946        -0.40371
   O       -5.07459        10.26898        -0.63855
   C       -7.87612        11.22923        -2.08106
   C       -8.34009        11.95808        -3.18565
   C       -8.50121        13.31885        -3.07771
   C       -8.26686        13.95757        -1.84612
   C       -7.85371        13.23510        -0.73564
   C       -7.65032        11.87449        -0.85869
   C       -8.54954        15.36716        -1.99586
   C       -8.95588        15.60424        -3.32045
   C       -8.98128        14.31302        -4.11504
   C       -8.00663        14.46267        -5.30224
   C       -7.84879        13.24703        -6.20642
   C      -10.41247        13.90198        -4.52596
   C      -11.11464        14.82673        -5.51102
   C       -9.19600        16.89139        -3.73907
   C       -9.09185        17.95602        -2.82975
   C       -8.72472        17.69223        -1.50322
   C       -8.44059        16.41016        -1.08568
   C       -9.30142        19.29801        -3.31360
   C       -9.48526        20.40401        -2.56236
   C       -9.67323        21.71545        -3.08870
   C       -9.20440        22.26180        -4.24018
   C       -8.21085        21.83883        -5.20967
   C       -7.10729        21.06172        -4.97295
   C       -6.13404        20.75877        -5.94710
   N       -5.32526        20.46000        -6.70508
   C       -6.76298        20.52551        -3.71586
   N       -6.39981        20.09232        -2.71697
   C       -8.44874        22.60073        -6.43083
   C       -9.38875        23.62720        -6.15417
   C       -9.83596        23.51157        -4.75511
   O      -10.58981        24.23880        -4.15010
   C       -9.77903        24.54320        -7.10150
   C       -9.22692        24.43572        -8.38141
   C       -8.30366        23.39661        -8.65203
   C       -7.90186        22.47433        -7.69333
   S       -7.76217        23.45001       -10.29970
   C       -8.74937        24.83713       -10.60458
   C       -9.45715        25.24578        -9.52911
   H      -13.24935         3.81888       -12.25263
   H      -13.36750        -0.88722       -10.53434
   H      -14.51543         0.26976       -15.60237
   H      -14.00954         2.66566       -14.69412
   H      -11.41563         2.31643        -6.47289
   H      -10.29350         8.27344        -4.64832
   H       -8.59148         5.86715        -3.76847
   H       -5.80814         6.65440        -1.26830
   H       -5.59416        10.97258        -1.05599
   H       -8.55408        11.42850        -4.09983
   H       -7.70409        13.72292         0.21480
   H       -7.38168        11.29649         0.01368
   H       -7.02831        14.72939        -4.89312
   H       -8.34319        15.30732        -5.90487
   H       -7.37657        12.42257        -5.68019
   H       -7.21256        13.51090        -7.04857
   H       -8.80576        12.91545        -6.59971
   H      -11.01121        13.84121        -3.61306
   H      -10.36776        12.89777        -4.94999
   H      -11.28895        15.80509        -5.07205
   H      -12.08040        14.40042        -5.77339
   H      -10.54016        14.94469        -6.42578
   H       -9.45569        17.10664        -4.76496
   H       -8.61676        18.51069        -0.81024
   H       -8.12348        16.22289        -0.07118
   H       -9.34124        19.39800        -4.39271
   H       -9.58449        20.31508        -1.48961
   H      -10.32339        22.37090        -2.51568
   H      -10.48806        25.31994        -6.86075
   H       -7.20017        21.69687        -7.94679
   H       -8.73816        25.26722       -11.58719
   H      -10.12310        26.08953        -9.53177
*
