# ORCA input file
# SCF done       -215.853749512731          0.000904295037
! CAM-B3LYP def2-SVP def2/J RIJCOSX Grid4 TightSCF
%maxcore 5000
%tddft
    Mode sTDDFT
    Ethresh 5.0
    maxcore 5000
end

%pal
  nprocs 6
  end
* xyz 0 1
   C       -5.45679        -0.18721         3.83704
   C       -5.35360        -1.53334         3.60077
   C       -5.20354        -2.50290         4.61483
   N       -5.07764        -3.33882         5.39143
   C       -5.41784        -2.15163         2.33397
   N       -5.48172        -2.73147         1.34468
   C       -5.47364         0.44225         5.15298
   C       -5.72411         1.82898         4.99060
   C       -5.80521         2.69809         6.05197
   C       -5.62422         2.17686         7.33642
   C       -5.36929         0.79272         7.48978
   C       -5.29222        -0.08730         6.41602
   S       -5.17049         0.37214         9.16100
   C       -5.42678         2.01656         9.63095
   C       -5.65062         2.84900         8.59067
   C       -5.85708         2.12995         3.55907
   O       -6.10227         3.21825         3.06586
   C       -5.62248         0.86522         2.85034
   C       -5.48821         0.72242         1.49461
   C       -5.60513         1.67540         0.47273
   S       -6.08258         3.34311         0.64609
   C       -5.94316         3.61650        -1.05615
   C       -5.52686         2.46389        -1.72766
   C       -5.34458         1.37800        -0.87854
   S       -4.78465        -0.22182        -1.33759
   C       -4.45097        -0.23289        -3.07786
   O       -3.92356        -1.21570        -3.51661
   C       -4.83418         0.88771        -4.02087
   O       -4.76082         0.71140        -5.20583
   S       -5.34781         2.48461        -3.47817
   C       -6.19169         4.87683        -1.65820
   C       -6.68982         5.93987        -0.98827
   C       -6.93347         7.24831        -1.53286
   C       -6.40010         7.65789        -2.76701
   C       -6.64683         8.92827        -3.22021
   C       -7.44580         9.81723        -2.47563
   C       -7.98138         9.42448        -1.25545
   C       -7.71089         8.15409        -0.79314
   C       -7.52422        11.07021        -3.18935
   C       -6.75475        10.96709        -4.36370
   C       -6.14742         9.58947        -4.48316
   C       -4.60877         9.65087        -4.51132
   C       -4.02153        10.34757        -3.28967
   C       -6.65931         8.86083        -5.74029
   C       -8.17891         8.75696        -5.78680
   C       -6.63130        12.03720        -5.21111
   C       -7.29274        13.24577        -4.91940
   C       -8.07663        13.32141        -3.75393
   C       -8.18996        12.25315        -2.89137
   C       -7.11834        14.35066        -5.81657
   C       -7.75816        15.54955        -5.76489
   C       -7.51776        16.60408        -6.66382
   C       -8.19849        17.79480        -6.63043
   C       -8.03433        18.92242        -7.47199
   C       -8.88445        19.95310        -7.20268
   C       -9.77406        19.69154        -6.13693
   S       -9.48092        18.10845        -5.46896
   C      -10.80457        20.46930        -5.63883
   C      -11.28261        21.73389        -6.03450
   C      -12.40563        22.12529        -5.36319
   C      -12.88875        21.18343        -4.42267
   S      -11.81670        19.81383        -4.37332
   C      -13.99216        21.34245        -3.59780
   C      -14.52783        20.44256        -2.68056
   C      -14.35410        19.07459        -2.53779
   C      -13.95521        18.04572        -3.44561
   C      -14.05645        18.06658        -4.82146
   C      -13.64498        17.01534        -5.65890
   N      -13.30032        16.20126        -6.39331
   C      -14.63755        19.13028        -5.53393
   N      -15.10409        19.98044        -6.14963
   C      -13.55261        16.88626        -2.65466
   C      -13.92250        17.11157        -1.30704
   C      -14.52882        18.46178        -1.19995
   O      -15.01353        18.97291        -0.21405
   C      -13.66817        16.19863        -0.31483
   C      -12.98688        15.02554        -0.66695
   C      -12.59966        14.82785        -2.01088
   C      -12.88335        15.73829        -3.02259
   S      -11.72409        13.34061        -2.21682
   C      -11.89551        13.00640        -0.51369
   C      -12.57221        13.95437         0.17390
  Br      -11.14310        11.44147         0.19313
   H       -5.99963         3.74752         5.89414
   H       -5.09232        -1.13182         6.58637
   H       -5.39218         2.26219        10.67458
   H       -5.82892         3.90420         8.69122
   H       -5.22688        -0.26440         1.13019
   H       -5.97137         4.93861        -2.71519
   H       -6.94778         5.80436         0.05529
   H       -5.77888         6.98509        -3.33753
   H       -8.59039        10.09861        -0.67407
   H       -8.11395         7.83667         0.15725
   H       -4.29684        10.17873        -5.41484
   H       -4.21906         8.63268        -4.56962
   H       -4.38514        11.37031        -3.21748
   H       -2.93663        10.37222        -3.35952
   H       -4.29539         9.82159        -2.37775
   H       -6.22675         7.85860        -5.76288
   H       -6.30511         9.39687        -6.62321
   H       -8.55407         8.20948        -4.92499
   H       -8.48907         8.23365        -6.68804
   H       -8.63353         9.74515        -5.78953
   H       -6.03277        11.96660        -6.10830
   H       -8.58962        14.24089        -3.51901
   H       -8.78443        12.33319        -1.99427
   H       -6.40229        14.19570        -6.61533
   H       -8.50684        15.73314        -5.00613
   H       -6.75851        16.47739        -7.42447
   H       -7.29513        18.93327        -8.25367
   H       -8.90600        20.88273        -7.74243
   H      -10.80195        22.31245        -6.80275
   H      -12.92441        23.05065        -5.53855
   H      -14.43735        22.32920        -3.61896
   H      -15.12541        20.88343        -1.88761
   H      -13.96739        16.38437         0.70479
   H      -12.56748        15.54887        -4.03499
   H      -12.76827        13.90805         1.22976
*
