# ORCA input file
# SCF done       -191.504685448579          0.000523333114
! CAM-B3LYP def2-SVP def2/J RIJCOSX Grid4 TightSCF
%maxcore 5000
%tddft
    Mode sTDDFT
    Ethresh 5.0
    maxcore 5000
end

%pal
  nprocs 6
  end
* xyz 0 1
   C       -4.99310        -2.10266         0.78727
   C       -4.12634        -2.60364        -0.14917
   C       -3.51920        -3.87309        -0.06539
   N       -2.99921        -4.89671        -0.04992
   C       -3.68822        -1.89997        -1.29094
   N       -3.25899        -1.38101        -2.22105
   C       -5.36943        -2.74494         2.03910
   C       -6.15092        -1.83762         2.79761
   C       -6.65521        -2.15446         4.03573
   C       -6.37004        -3.42149         4.55380
   C       -5.59035        -4.32068         3.78811
   C       -5.08392        -4.00363         2.53322
   S       -5.37127        -5.82812         4.62060
   C       -6.30396        -5.25260         5.95914
   C       -6.76194        -3.99218         5.79779
   C       -6.33196        -0.58480         2.04075
   O       -7.03003         0.35317         2.36289
   C       -5.60324        -0.78840         0.76050
   C       -5.68752         0.04581        -0.31180
   C       -6.10945         1.40664        -0.24555
   C       -6.84634         1.98934        -1.29706
   C       -7.32294         3.34957        -1.23183
   N       -8.14723         3.80034        -2.19047
   C       -8.44465         3.02790        -3.20709
   C       -7.88871         1.71183        -3.31696
   N       -7.13896         1.22147        -2.36168
   C       -8.16794         0.92508        -4.46207
   N       -8.42584         0.32739        -5.40488
   C       -9.32192         3.53043        -4.19895
   N      -10.01472         3.93696        -5.01645
   C       -7.00785         4.20513        -0.14803
   C       -6.21242         3.63659         0.86611
   C       -5.76316         2.26333         0.81699
   N       -4.95244         1.96767         1.83212
   S       -4.80567         3.25663         2.77229
   N       -5.72627         4.26930         1.93980
   C       -7.48404         5.57062        -0.08077
   C       -7.66218         6.33114        -1.24885
   C       -8.16060         7.60386        -1.15544
   C       -8.47948         8.16409         0.09604
   C       -8.28613         7.42745         1.25949
   C       -7.79077         6.14598         1.16326
   C       -8.97777         9.49931        -0.11327
   C       -8.98696         9.76576        -1.49714
   C       -8.45385         8.58113        -2.26852
   C       -7.17517         8.95153        -3.04346
   C       -6.08090         9.51793        -2.14644
   C       -9.50160         8.01302        -3.24441
   C      -10.79076         7.59011        -2.55147
   C       -9.42818        10.97392        -1.96932
   C       -9.84857        11.97116        -1.06717
   C       -9.82940        11.68604         0.31072
   C       -9.40751        10.46656         0.78889
   C      -10.27372        13.23636        -1.58643
   C      -10.49048        14.36909        -0.86342
   C      -10.89812        15.59216        -1.41995
   C      -11.04244        16.74848        -0.69325
   C      -11.44744        18.02035        -1.16483
   C      -11.47203        18.99209        -0.21023
   C      -11.08389        18.54531         1.07225
   S      -10.70208        16.83852         1.02873
   C      -10.97281        19.27994         2.23674
   C      -11.22750        20.65822         2.42579
   C      -10.99927        21.09345         3.69390
   C      -10.54947        20.08633         4.58769
   S      -10.44010        18.54972         3.73341
   C      -10.22316        20.23420         5.90641
   C       -9.77605        19.17063         6.72841
   C       -9.42641        19.26543         8.03028
   C       -9.43474        20.55720         8.78882
   C       -8.88154        18.06376         8.75538
   N       -7.43484        18.12897         8.85432
   C       -6.65976        17.87227         7.74609
   C       -5.44014        18.35723         7.54154
   H       -7.25047        -1.44418         4.58853
   H       -4.50255        -4.72514         1.98357
   H       -6.45404        -5.90551         6.79693
   H       -7.35914        -3.47087         6.52401
   H       -5.46984        -0.32546        -1.30537
   H       -7.39091         5.91803        -2.20625
   H       -8.53146         7.84659         2.22377
   H       -7.65773         5.55506         2.05490
   H       -7.43162         9.68519        -3.81054
   H       -6.80410         8.05753        -3.54838
   H       -6.41958        10.42538        -1.65097
   H       -5.19991         9.75740        -2.73749
   H       -5.79745         8.79638        -1.38329
   H       -9.07295         7.14953        -3.75639
   H       -9.72516         8.77160        -3.99746
   H      -10.59368         6.80912        -1.82079
   H      -11.49367         7.20167        -3.28418
   H      -11.25130         8.43360        -2.04077
   H       -9.44178        11.18300        -3.02966
   H      -10.16889        12.43419         1.00984
   H       -9.40902        10.26458         1.84965
   H      -10.39997        13.28873        -2.66134
   H      -10.32636        14.36675         0.20598
   H      -11.10554        15.63823        -2.48099
   H      -11.70618        18.17602        -2.19744
   H      -11.75299        20.01362        -0.39430
   H      -11.56839        21.28612         1.62212
   H      -11.13533        22.10877         4.02277
   H      -10.31313        21.22375         6.33110
   H       -9.72387        18.20076         6.24865
   H      -10.41124        21.03480         8.72312
   H       -8.69897        21.25180         8.38151
   H       -9.20647        20.39086         9.83913
   H       -9.14016        17.14415         8.22529
   H       -9.28630        18.00825         9.77102
   H       -7.09305        18.89383         9.42182
   H       -7.10272        17.16766         7.05528
   H       -4.98664        19.05807         8.22188
   H       -4.85044        18.04512         6.70118
*
