# ORCA input file
# SCF done       -222.012593850147          0.000950229056
! CAM-B3LYP def2-SVP def2/J RIJCOSX Grid4 TightSCF
%maxcore 5000
%tddft
    Mode sTDDFT
    Ethresh 5.0
    maxcore 5000
end

%pal
  nprocs 6
  end
* xyz 0 1
   C       -9.97975        13.95301         2.83671
   C      -11.35040        13.89089         2.85412
   C      -12.12172        13.81207         4.02984
   N      -12.79602        13.74870         4.95759
   C      -12.15164        13.83201         1.69509
   N      -12.86399        13.74202         0.79870
   C       -9.09865        13.87693         3.99464
   C       -7.76168        13.77470         3.53586
   C       -6.69285        13.69619         4.39477
   C       -6.95423        13.71875         5.76880
   C       -8.29207        13.82409         6.21549
   C       -9.37538        13.90290         5.34752
   S       -8.37516        13.85142         7.94960
   C       -6.65313        13.72301         8.05866
   C       -6.03848        13.66138         6.85765
   C       -7.73913        13.81864         2.05948
   O       -6.74758        13.83707         1.35928
   C       -9.15494        13.98353         1.65117
   C       -9.55181        14.35938         0.39816
   C       -8.77225        14.20406        -0.77546
   C       -8.83587        15.15998        -1.81712
   C       -7.96605        15.09733        -2.95812
   N       -7.99314        16.06494        -3.87314
   C       -8.84193        17.06593        -3.72992
   C       -9.72654        17.11269        -2.61225
   N       -9.69677        16.18404        -1.68580
   C      -10.65126        18.18175        -2.49246
   N      -11.37827        19.06485        -2.43443
   C       -8.86019        18.08916        -4.70593
   N       -8.89218        18.93041        -5.48456
   C       -7.04239        14.01196        -3.15704
   C       -7.11077        12.97942        -2.18415
   C       -7.93959        13.08544        -1.00842
   N       -7.86634        11.99555        -0.25138
   S       -6.83328        10.95918        -0.91002
   N       -6.44698        11.83190        -2.21392
   C       -6.16225        14.08289        -4.23310
   C       -5.24455        13.17483        -4.74059
   C       -4.39241        13.49310        -5.82192
   C       -3.60340        12.46120        -6.24692
   C       -3.82552        11.27414        -5.52977
   S       -5.00697        11.51751        -4.26128
   C       -3.26290        10.02364        -5.76469
   C       -2.27940         9.67534        -6.71023
   C       -1.99555         8.34131        -6.74083
   C       -2.74809         7.55728        -5.83062
   S       -3.79731         8.61355        -4.89477
   C       -2.71265         6.18396        -5.78956
   C       -3.47354         5.26795        -5.01909
   C       -3.47890         3.93490        -5.42053
   C       -4.31649         3.00489        -4.79387
   C       -4.57490         1.65967        -5.06281
   C       -3.99385         0.75382        -6.09128
   C       -4.73648         0.90557        -7.43946
   N       -4.53447         2.23116        -7.99658
   C       -2.47652         0.92987        -6.28208
   N       -1.88582        -0.36542        -6.57622
   C       -5.61106         1.25063        -4.14619
   C       -6.29264         0.09282        -4.05519
   C       -7.39061        -0.08217        -3.05555
   C       -7.58878         1.08040        -2.13509
   C       -6.91159         2.23574        -2.25869
   C       -5.93243         2.38618        -3.27281
   C       -5.15015         3.44492        -3.67800
   C       -5.05827         4.78450        -3.22895
   C       -4.25651         5.66059        -3.87983
   C       -7.11570        -1.35434        -2.30588
   C       -7.63495        -2.53672        -2.65964
   C       -7.32160        -3.76378        -2.00059
   C       -7.57655        -5.01430        -2.45605
   C       -8.06011        -5.49000        -3.73825
   C       -7.83108        -4.91618        -4.96211
   C       -8.28824        -5.45999        -6.18153
   N       -8.65132        -5.84372        -7.20039
   C       -7.03038        -3.77687        -5.17539
   N       -6.35657        -2.88155        -5.42830
   C       -8.63937        -6.80824        -3.51635
   C       -8.30582        -7.23871        -2.20458
   C       -7.55170        -6.17499        -1.51775
   O       -7.05954        -6.19844        -0.41429
   C       -8.68229        -8.46684        -1.71618
   C       -9.42934        -9.30255        -2.55211
   C       -9.76841        -8.85756        -3.85362
   C       -9.38132        -7.61984        -4.35297
   S      -10.70406       -10.04727        -4.70108
   C      -10.63142       -11.10989        -3.33895
   C       -9.94199       -10.60450        -2.29263
   H       -5.68422        13.62322         4.01812
   H      -10.37739        13.99315         5.73333
   H       -6.20188        13.70323         9.03162
   H       -4.97399        13.58129         6.72958
   H      -10.49202        14.88198         0.26938
   H       -6.21708        15.01875        -4.77811
   H       -4.38776        14.47694        -6.25703
   H       -2.90153        12.53140        -7.05844
   H       -1.81048        10.40778        -7.34196
   H       -1.27717         7.89122        -7.40321
   H       -2.05051         5.73151        -6.51952
   H       -2.88349         3.63220        -6.26713
   H       -4.14796        -0.27792        -5.75966
   H       -5.79760         0.65478        -7.27743
   H       -4.32550         0.18005        -8.14608
   H       -5.01499         2.92500        -7.43315
   H       -4.90773         2.28027        -8.93767
   H       -2.03095         1.28652        -5.34976
   H       -2.30005         1.67808        -7.06850
   H       -2.21857        -0.71091        -7.47003
   H       -0.87612        -0.29404        -6.62875
   H       -6.09388        -0.75665        -4.69400
   H       -8.31892        -0.23121        -3.63066
   H       -8.33258         0.94692        -1.36422
   H       -7.10529         3.06211        -1.59062
   H       -5.63752         5.09751        -2.37315
   H       -4.18082         6.67670        -3.52912
   H       -6.39863        -1.28410        -1.50024
   H       -8.33559        -2.58133        -3.48382
   H       -6.89194        -3.69933        -1.00708
   H       -8.40856        -8.77288        -0.71847
   H       -9.66847        -7.31993        -5.34740
   H      -11.11853       -12.06320        -3.40677
   H       -9.79366       -11.12265        -1.36265
*
