# ORCA input file
# SCF done       -190.164719506309          0.000340888379
! CAM-B3LYP def2-SVP def2/J RIJCOSX Grid4 TightSCF
%maxcore 5000
%tddft
    Mode sTDDFT
    Ethresh 5.0
    maxcore 5000
end

%pal
  nprocs 6
  end
* xyz 0 1
   C       -2.80674        -1.23117        -1.19410
   C       -3.22416        -2.14734        -2.12263
   C       -2.55352        -3.35791        -2.39691
   N       -2.05095        -4.35527        -2.66163
   C       -4.35444        -1.99758        -2.95440
   N       -5.24680        -1.93954        -3.67436
   C       -1.60020        -1.32762        -0.38411
   C       -1.44233        -0.12597         0.34977
   C       -0.38894         0.08570         1.20636
   C        0.55463        -0.93697         1.34616
   C        0.38696        -2.13592         0.61165
   C       -0.67768        -2.35018        -0.25402
   S        1.66303        -3.26891         0.93738
   C        2.39572        -2.13260         2.03860
   C        1.72098        -0.96446         2.15854
  Br        3.98095        -2.59637         2.92617
   C       -2.55696         0.79230         0.04438
   O       -2.73278         1.89495         0.51144
   C       -3.43801         0.04500        -0.89602
   C       -4.68686         0.43630        -1.25288
   C       -5.25966         1.73021        -1.00342
   C       -4.59722         2.94205        -1.27000
   N       -5.15364         4.10757        -1.07238
   C       -6.40704         4.14122        -0.61623
   N       -7.12781         3.05269        -0.34170
   C       -6.57294         1.88291        -0.52895
   C       -7.02625         5.43731        -0.42343
   C       -8.42122         5.60099        -0.46441
   C       -9.03798         6.88469        -0.21931
   N      -10.37061         6.95108        -0.07524
   C      -11.10238         5.88394        -0.27358
   C      -10.49505         4.66885        -0.74397
   N       -9.19630         4.55638        -0.80392
   C      -11.31363         3.58895        -1.15922
   N      -12.02057         2.74603        -1.47886
   C      -12.49901         5.96792        -0.06047
   N      -13.63437         6.02256         0.08668
   C       -8.28003         8.06749        -0.05048
   C       -6.88424         7.89529        -0.02644
   C       -6.26392         6.59596        -0.20263
   N       -4.93507         6.66952        -0.12481
   S       -4.50723         8.19236         0.10899
   N       -5.96703         8.85426         0.14350
   C       -8.92247         9.35376         0.12470
   C      -10.13519         9.63193        -0.52732
   C      -10.77871        10.81578        -0.27971
   C      -10.22819        11.76345         0.60217
   C       -9.00357        11.51790         1.21427
   C       -8.36138        10.32376         0.96959
   C      -11.14560        12.86949         0.71311
   C      -12.26995        12.60770        -0.09663
   C      -12.08349        11.31607        -0.85956
   C      -11.84123        11.57473        -2.36596
   C      -12.98555        12.24504        -3.11444
   C      -13.23256        10.32216        -0.63217
   C      -13.37020         9.91169         0.82910
   C      -13.33718        13.46839        -0.08913
   C      -13.29810        14.63997         0.69257
   C      -12.15093        14.89980         1.46331
   C      -11.08824        14.02521         1.48479
   C      -14.43345        15.51319         0.66366
   C      -14.59898        16.66999         1.35957
   C      -15.75472        17.46556         1.26109
   C      -15.96147        18.62689         1.95816
   C      -17.10398        19.46612         1.89276
   C      -17.04666        20.55730         2.69972
   C      -15.85286        20.65078         3.45841
   S      -14.80227        19.29493         3.09912
   C      -15.50483        21.62647         4.36267
   C      -16.26999        22.76691         4.73738
   C      -15.67683        23.55783         5.65811
   C      -14.38571        23.10210         6.08788
   S      -13.98647        21.60188         5.23541
   C      -13.57014        23.67394         6.98395
   H       -0.29665         1.01234         1.75087
   H       -0.76469        -3.28233        -0.78671
   H        2.03109        -0.15494         2.79370
   H       -5.34161        -0.27112        -1.74760
   H       -3.60814         2.95244        -1.70685
   H       -7.17303         1.02295        -0.25902
   H      -10.54718         8.91927        -1.22308
   H       -8.56902        12.24305         1.88574
   H       -7.42431        10.10734         1.45671
   H      -11.62393        10.61252        -2.83486
   H      -10.94743        12.19755        -2.46094
   H      -13.90134        11.66511        -3.03867
   H      -12.72612        12.32815        -4.16780
   H      -13.16540        13.24616        -2.73220
   H      -13.05587         9.43152        -1.23816
   H      -14.16770        10.77449        -0.96461
   H      -12.46441         9.42073         1.17692
   H      -14.19737         9.21545         0.94210
   H      -13.55659        10.78051         1.45751
   H      -14.22616        13.25709        -0.66492
   H      -12.10526        15.79701         2.06037
   H      -10.22404        14.23004         2.09899
   H      -15.24252        15.20265         0.01246
   H      -13.82874        17.02412         2.03104
   H      -16.54146        17.14446         0.59039
   H      -17.93113        19.22935         1.24669
   H      -17.82436        21.29598         2.77405
   H      -17.23709        22.95801         4.30728
   H      -16.10180        24.45989         6.06109
   H      -13.85296        24.58579         7.47960
   H      -12.61739        23.24596         7.23617
*
