# ORCA input file
# SCF done       -190.411795818363          0.000316828724
! CAM-B3LYP def2-SVP def2/J RIJCOSX Grid4 TightSCF
%maxcore 5000
%tddft
    Mode sTDDFT
    Ethresh 5.0
    maxcore 5000
end

%pal
  nprocs 6
  end
* xyz 0 1
   C      -14.12140       -12.51426        -4.62211
   C      -14.37073       -12.03606        -3.35442
   C      -15.11016       -12.73268        -2.37923
   N      -15.70452       -13.24394        -1.53910
   C      -13.93091       -10.80235        -2.83703
   N      -13.61502        -9.81990        -2.33005
   C      -14.57504       -13.80700        -5.13449
   C      -14.10469       -13.95763        -6.46140
   C      -14.37209       -15.06822        -7.22212
   C      -15.14581       -16.08268        -6.64660
   C      -15.61072       -15.92443        -5.32106
   C      -15.33702       -14.79988        -4.55023
   S      -16.55133       -17.29254        -4.80619
   C      -16.31070       -18.04654        -6.35985
   C      -15.56433       -17.31489        -7.22017
  Br      -17.06931       -19.72866        -6.69987
   C      -13.33295       -12.75550        -6.84269
   O      -12.78587       -12.56465        -7.91224
   C      -13.38240       -11.86264        -5.66963
   C      -12.83727       -10.59137        -5.62885
   C      -12.15394        -9.98733        -6.67466
   C      -11.68923        -8.68272        -6.62330
   C      -11.03865        -7.98164        -7.65724
   C      -10.74771        -6.67958        -7.35065
   C      -11.14861        -6.30421        -6.05700
   S      -11.89330        -7.64707        -5.22800
   C      -11.04588        -5.04848        -5.46270
   C      -10.57914        -3.85552        -6.03830
   C      -10.68987        -2.77087        -5.21087
   C      -11.22156        -3.06403        -3.93943
   S      -11.58504        -4.76969        -3.82785
   C      -11.49742        -2.10910        -2.97238
   C      -11.92369        -2.25332        -1.66106
   S      -12.49419        -0.80130        -0.83102
   C      -11.97737        -3.32360        -0.75622
   S      -11.54711        -4.99763        -0.78137
   C      -12.02237        -5.07916         0.90278
   N      -12.44609        -3.99555         1.43269
   C      -12.42927        -2.97898         0.53730
   C      -12.79502        -1.62579         0.68104
   C      -13.34390        -0.96941         1.77171
   C      -13.49431        -1.54012         3.02479
   C      -14.13524        -0.89325         4.06553
   C      -14.22045        -1.36473         5.36962
   C      -14.96131        -0.79210         6.41773
   C      -14.83373        -1.44665         7.61430
   C      -13.95902        -2.54512         7.56272
   S      -13.34485        -2.76465         5.94563
   C      -13.54783        -3.34086         8.63111
   C      -14.02824        -3.30679         9.95174
   C      -13.37512        -4.16305        10.79571
   C      -12.34136        -4.89491        10.17992
   S      -12.25039        -4.49812         8.48115
   C      -11.45051        -5.74290        10.81728
   C      -10.39828        -6.38775        10.18341
   C       -9.37748        -7.10711        10.77371
   C       -8.92584        -7.18054        12.13371
   C       -9.08447        -6.22897        13.11803
   C       -8.58770        -6.36322        14.42830
   N       -8.22912        -6.42526        15.51819
   C       -9.65228        -4.95630        12.91707
   N      -10.05587        -3.88577        12.80950
   C       -8.05024        -8.34864        12.24210
   C       -7.81535        -8.85904        10.94103
   C       -8.59490        -8.06662         9.96507
   O       -8.61768        -8.19460         8.75944
   C       -6.98760        -9.92835        10.70608
   C       -6.36976       -10.53082        11.80842
   C       -6.62384       -10.02417        13.10355
   C       -7.45626        -8.93574        13.34115
   S       -5.76683       -10.92069        14.32078
   C       -5.08323       -11.94695        13.08787
   C       -5.47714       -11.63792        11.83019
  Br       -3.91382       -13.32944        13.57886
   H      -13.99956       -15.15218        -8.23104
   H      -15.71711       -14.72827        -3.54506
   H      -15.31877       -17.62828        -8.21846
   H      -12.96639       -10.00688        -4.72609
   H      -11.99307       -10.54305        -7.58727
   H      -10.81366        -8.45106        -8.59815
   H      -10.26011        -5.99567        -8.02163
   H      -10.19229        -3.81303        -7.04000
   H      -10.39901        -1.77129        -5.48138
   H      -11.39124        -1.08319        -3.30518
   H      -11.94820        -6.00811         1.43283
   H      -13.65834         0.05538         1.62202
   H      -13.09451        -2.53194         3.18705
   H      -14.62013         0.05467         3.86602
   H      -15.57118         0.08118         6.26777
   H      -15.32452        -1.14511         8.52153
   H      -14.83703        -2.66578        10.25215
   H      -13.59011        -4.26742        11.84388
   H      -11.60463        -5.88486        11.87737
   H      -10.39002        -6.39117         9.09733
   H       -6.81828       -10.28948         9.70384
   H       -7.62030        -8.58756        14.34735
   H       -5.15291       -12.16662        10.95248
*
