# ORCA input file
# SCF done       -143.736679597471          0.000304171372
! CAM-B3LYP def2-SVP def2/J RIJCOSX Grid4 TightSCF
%maxcore 5000
%tddft
    Mode sTDDFT
    Ethresh 5.0
    maxcore 5000
end

%pal
  nprocs 6
  end
* xyz 0 1
   C        4.21258       -12.74278        15.61449
   C        4.80898       -11.93338        14.72412
   C        5.37679       -10.63993        14.95069
   C        5.91841       -10.06725        13.84642
   C        5.82333       -10.85468        12.67406
   S        5.00803       -12.36324        13.01799
   C        6.30213       -10.54397        11.41082
   C        6.99012        -9.38758        11.00525
   C        7.36308        -9.40263         9.68538
   C        6.98541       -10.56130         8.99366
   S        6.12328       -11.64530        10.06249
   C        7.27094       -10.87270         7.66492
   C        6.88992       -12.03022         7.03319
   C        7.26907       -12.39176         5.73844
   C        6.95196       -13.57722         5.07001
   C        7.55419       -13.70541         3.83823
   C        8.36336       -12.61958         3.49526
   S        8.32332       -11.40747         4.74981
   C        9.19678       -12.48678         2.37878
   C        9.49284       -13.45646         1.41508
   C       10.47270       -13.07352         0.53235
   C       10.97089       -11.77913         0.75076
   S       10.13259       -11.04092         2.09887
   C       12.04957       -11.21083         0.08833
   C       12.53791        -9.91655         0.20907
   S       14.14476        -9.54486        -0.40724
   C       14.00969        -7.85970         0.04426
   C       12.72694        -7.61976         0.61900
   C       11.95130        -8.76437         0.73080
   C       12.25136        -6.32548         1.07137
   O       11.17014        -6.12383         1.57451
   C       15.03915        -6.95982        -0.13338
   C       16.36144        -7.25190        -0.46989
   C       17.39622        -6.32274        -0.63356
   C       18.63859        -6.88867        -0.81695
   C       18.62271        -8.28347        -0.79431
   S       16.99196        -8.87458        -0.59916
   C       19.70653        -9.17301        -0.81741
   C       21.06417        -8.89126        -0.96592
   C       21.87576        -9.99928        -0.83370
   C       21.18445       -11.18351        -0.57469
   S       19.46294       -10.87616        -0.53567
   C       21.72556       -12.44585        -0.30978
   C       20.97898       -13.55773        -0.01439
   C       21.49401       -14.80286         0.34825
   C       20.75546       -15.94766         0.67383
   C       21.51983       -17.02547         1.04364
   C       22.90087       -16.77006         1.02541
   S       23.20509       -15.12505         0.50931
   C       23.93135       -17.63219         1.36940
   C       23.81584       -18.97038         1.81524
   C       24.99949       -19.56965         2.10028
   C       26.14415       -18.73643         1.89668
   S       25.61128       -17.15034         1.31674
   C       27.43652       -19.04293         2.09616
   H        4.11332       -12.44662        16.64364
   H        3.82137       -13.70269        15.33224
   H        5.35812       -10.19354        15.92878
   H        6.38837        -9.09983        13.83629
   H        7.20179        -8.57926        11.68149
   H        7.90339        -8.60837         9.20087
   H        7.85716       -10.14819         7.11325
   H        6.27945       -12.74185         7.57517
   H        6.30501       -14.31818         5.50553
   H        7.42919       -14.55669         3.19368
   H        9.01489       -14.41926         1.40228
   H       10.84987       -13.69604        -0.25968
   H       12.60016       -11.87483        -0.56615
   H       10.95999        -8.73966         1.14715
   H       12.96251        -5.49040         0.92066
   H       14.82912        -5.91601         0.05829
   H       17.21691        -5.26253        -0.59795
   H       19.54500        -6.32261        -0.93552
   H       21.42866        -7.89799        -1.15673
   H       22.94884        -9.97184        -0.90533
   H       22.80545       -12.52446        -0.31202
   H       19.89914       -13.47492        -0.03732
   H       19.68027       -15.95451         0.63519
   H       21.11621       -17.98000         1.32901
   H       22.85764       -19.44900         1.91394
   H       25.10828       -20.57967         2.45294
   H       27.71957       -20.01788         2.45127
   H       28.22112       -18.33300         1.91039
*
