# ORCA input file
# SCF done       -192.165262627483          0.000506556947
! CAM-B3LYP def2-SVP def2/J RIJCOSX Grid4 TightSCF
%maxcore 5000
%tddft
    Mode sTDDFT
    Ethresh 5.0
    maxcore 5000
end

%pal
  nprocs 6
  end
* xyz 0 1
   C        8.82966         6.81367       -11.57205
   C        9.53670         6.25659       -10.57512
   C       10.62215         6.82643        -9.83822
   C       11.13820         6.00946        -8.88518
   C       10.50777         4.74538        -8.79806
   S        9.22093         4.62174        -9.97208
   C       10.82389         3.70545        -7.93393
   C       11.82705         3.66863        -6.95326
   C       11.89146         2.47508        -6.27622
   C       10.94847         1.52855        -6.69155
   S        9.95602         2.18665        -7.96984
   C       10.79631         0.22597        -6.20568
   C        9.86335        -0.66753        -6.65786
   C        9.73513        -1.99017        -6.21444
   C        8.81959        -2.93773        -6.66709
   C        8.95730        -4.17824        -6.07621
   C        9.98536        -4.23757        -5.13898
   S       10.77866        -2.69311        -5.00096
   C       10.40559        -5.35700        -4.39727
   C        9.92082        -6.65846        -4.48024
   C       10.58031        -7.54639        -3.65166
   C       11.58946        -6.96576        -2.88954
   S       11.70131        -5.25867        -3.23503
   C       12.43060        -7.62461        -1.97806
   C       13.36339        -7.02765        -1.18124
   C       14.20427        -7.72657        -0.29934
   C       15.10526        -7.19379         0.61939
   C       15.78547        -8.14321         1.35685
   C       15.44565        -9.45367         1.02392
   S       14.23592        -9.47114        -0.23171
   C       15.94556       -10.64907         1.55622
   C       16.81061       -10.83469         2.63773
   C       17.08705       -12.15361         2.90110
   C       16.44708       -13.06986         2.04479
   S       15.49760       -12.18816         0.87097
   C       16.64358       -14.44066         2.08824
   C       16.13829       -15.49859         1.33028
   S       17.17796       -16.91143         1.29055
   C       16.19152       -17.67608         0.08048
   C       15.09499       -16.84994        -0.24964
   C       15.01056       -15.68741         0.50078
   C       13.73999       -14.87893         0.54855
   C       13.18454       -14.86286         1.97347
   F       13.04833       -16.09921         2.47682
   F       13.91896       -14.17842         2.85922
   F       11.96155       -14.30304         2.01291
   C       12.65026       -15.48880        -0.34572
   C       13.24506       -15.96983        -1.65656
   C       14.16402       -17.16893        -1.39185
   O       14.97968       -17.46105        -2.51440
   C       14.30128       -18.04813        -3.60112
   C       16.36676       -18.95709        -0.44013
   C       17.33146       -19.90601        -0.17093
   C       17.36981       -21.23223        -0.73629
   C       16.39139       -21.85040        -1.48265
   C       16.50610       -23.15110        -2.01014
   N       16.53991       -24.20184        -2.47434
   C       15.13138       -21.30969        -1.79801
   N       14.07002       -20.96921        -2.08356
   C       18.62594       -21.85349        -0.32278
   C       19.31164       -20.95588         0.53171
   C       18.51237       -19.72211         0.67193
   O       18.80208       -18.75560         1.35693
   C       20.52398       -21.25222         1.10196
   C       21.09366       -22.49752         0.81110
   C       20.40496       -23.38585        -0.04583
   C       19.17457       -23.08584        -0.62017
   S       21.28720       -24.86596        -0.27449
   C       22.55186       -24.27735         0.77154
   C       22.32753       -23.03782         1.26720
  Br       24.05033       -25.35481         1.10942
   H        9.05166         7.80999       -11.91103
   H        8.02871         6.28852       -12.05901
   H       10.97148         7.82092       -10.05099
   H       11.95648         6.27542        -8.23987
   H       12.47729         4.50328        -6.76394
   H       12.59872         2.26273        -5.49385
   H       11.48260        -0.08303        -5.42706
   H        9.17239        -0.35263        -7.43020
   H        8.08282        -2.70582        -7.41565
   H        8.33763        -5.02484        -6.30955
   H        9.11739        -6.93682        -5.13762
   H       10.34795        -8.59452        -3.58628
   H       12.30702        -8.69898        -1.91522
   H       13.47178        -5.95068        -1.20622
   H       15.24005        -6.13282         0.73556
   H       16.51613        -7.91023         2.11012
   H       17.20259       -10.01136         3.20715
   H       17.72674       -12.48730         3.69838
   H       17.42811       -14.74082         2.77480
   H       13.91396       -13.83868         0.26049
   H       11.87439       -14.74374        -0.52544
   H       12.19173       -16.33847         0.16684
   H       13.83556       -15.17653        -2.11955
   H       12.44778       -16.25724        -2.34184
   H       13.54927       -18.05315        -1.14345
   H       15.07270       -18.32056        -4.31927
   H       13.60393       -17.34920        -4.07403
   H       13.76046       -18.94890        -3.29055
   H       15.62365       -19.23665        -1.17191
   H       21.01920       -20.54758         1.75145
   H       18.69116       -23.79848        -1.26710
   H       23.00255       -22.52347         1.92669
*
