# ORCA input file
# SCF done       -188.482923759709          0.000444586048
! CAM-B3LYP def2-SVP def2/J RIJCOSX Grid4 TightSCF
%maxcore 5000
%tddft
    Mode sTDDFT
    Ethresh 5.0
    maxcore 5000
end

%pal
  nprocs 6
  end
* xyz 0 1
   C      -12.89879       -11.10547        -3.16306
   C      -11.80128       -11.48220        -3.83225
   C      -11.70006       -12.48361        -4.85650
   C      -10.45572       -12.64598        -5.35433
   C       -9.47393       -11.79117        -4.77316
   S      -10.20200       -10.77055        -3.55508
   C       -8.13582       -11.73061        -5.08210
   C       -7.43652       -12.48806        -6.05878
   C       -6.11596       -12.19127        -6.12423
   C       -5.69266       -11.17329        -5.21876
   S       -7.04917       -10.60789        -4.29028
   C       -4.37786       -10.80466        -5.06389
   C       -3.78694        -9.86038        -4.21000
   S       -2.09329       -10.11246        -3.82060
   C       -2.06084        -8.73613        -2.76885
   C       -3.31430        -8.15279        -2.66270
   C       -4.27395        -8.72746        -3.54614
   C       -5.46597        -7.98415        -3.90504
   O       -6.21659        -8.29830        -4.81382
   C       -5.63626        -6.68356        -3.14823
   C       -5.16380        -6.77900        -1.70615
   C       -3.73192        -7.25377        -1.58324
   O       -3.06048        -7.01048        -0.60272
   C       -0.83104        -8.28228        -2.20540
   C        0.22445        -9.16885        -1.92156
   C        1.46021        -8.72557        -1.31643
   N        2.45013        -9.61694        -1.12903
   C        2.26232       -10.87077        -1.45774
   C        1.01098       -11.31687        -2.00050
   N        0.04363       -10.46373        -2.22275
   C        0.81787       -12.68369        -2.31557
   N        0.69620       -13.79735        -2.55667
   C        3.31392       -11.80412        -1.28486
   N        4.13373       -12.59569        -1.16383
   C        1.68118        -7.37171        -0.98144
   C        0.65735        -6.47727        -1.35275
   C       -0.57188        -6.91991        -1.97219
   N       -1.36125        -5.89820        -2.30361
   S       -0.67499        -4.53563        -1.81719
   N        0.67200        -5.14752        -1.20632
   C        2.90409        -6.91779        -0.34436
   C        3.55749        -7.71737         0.60686
   C        4.73029        -7.27913         1.17125
   C        5.25077        -6.01457         0.83759
   C        4.60771        -5.21351        -0.09689
   C        3.44764        -5.67041        -0.68291
   C        6.42951        -5.77233         1.63434
   C        6.64702        -6.88782         2.46219
   C        5.61589        -7.96281         2.18821
   C        4.84646        -8.36702         3.45373
   C        4.19894        -7.17208         4.14442
   C        6.36641        -9.16517         1.56710
   C        5.48610       -10.27565         1.01171
   C        7.70363        -6.91659         3.33743
   C        8.57344        -5.81712         3.41537
   C        8.33423        -4.70957         2.58648
   C        7.27940        -4.67626         1.70006
   C        9.70742        -5.77275         4.30676
   C       10.14446        -6.76556         5.10563
   C       11.28604        -6.68868         5.96690
   C       12.14462        -5.56530         6.17138
   C       13.13553        -5.91179         7.08197
   C       14.21111        -5.17725         7.61222
   C       15.03684        -5.81300         8.50721
   C       16.19401        -5.36681         9.21465
   C       16.66603        -6.40784         9.99936
   C       15.81057        -7.53023         9.79869
   C       14.81095        -7.18883         8.89297
   C       13.73628        -7.92268         8.36574
   C       12.90848        -7.28700         7.46962
   C       11.75604        -7.72935         6.76036
   C       17.80953        -6.42293        10.88138
   C       18.63061        -5.40018        11.10232
   H      -13.85037       -11.56494        -3.36494
   H      -12.86673       -10.33975        -2.40997
   H      -12.56809       -13.03428        -5.17289
   H      -10.19737       -13.34951        -6.12550
   H       -7.92680       -13.21770        -6.67762
   H       -5.41776       -12.66016        -6.79509
   H       -3.66980       -11.39711        -5.63286
   H       -5.04988        -5.92590        -3.67789
   H       -6.68513        -6.38691        -3.20034
   H       -5.78183        -7.49987        -1.16069
   H       -5.25686        -5.81908        -1.19518
   H        3.10907        -8.64893         0.91026
   H        5.01011        -4.24781        -0.36380
   H        2.94883        -5.06703        -1.42376
   H        5.53593        -8.85693         4.14465
   H        4.07248        -9.08718         3.18603
   H        4.95221        -6.44817         4.44796
   H        3.65772        -7.49769         5.03001
   H        3.49849        -6.67663         3.47552
   H        7.02602        -9.57715         2.33442
   H        6.99825        -8.78398         0.76044
   H        4.83456       -10.68922         1.77708
   H        6.11029       -11.08250         0.63487
   H        4.87811        -9.91338         0.18804
   H        7.86058        -7.77573         3.97093
   H        9.00350        -3.86275         2.64735
   H        7.11777        -3.81424         1.06998
   H       10.25162        -4.83728         4.29996
   H        9.62938        -7.71662         5.12194
   H       12.04086        -4.60548         5.69901
   H       14.37403        -4.14942         7.31850
   H       16.61473        -4.38167         9.13708
   H       15.93039        -8.48597        10.27820
   H       13.57352        -8.95061         8.65879
   H       11.32574        -8.71203         6.82993
   H       17.98155        -7.36389        11.38979
   H       18.49817        -4.44591        10.62202
   H       19.46506        -5.48278        11.77682
*
