# ORCA input file
# SCF done       -174.316124575223          0.000814842555
! CAM-B3LYP def2-SVP def2/J RIJCOSX Grid4 TightSCF
%maxcore 5000
%tddft
    Mode sTDDFT
    Ethresh 5.0
    maxcore 5000
end

%pal
  nprocs 6
  end
* xyz 0 1
   C       -3.70006        -0.25599        -2.35284
   S       -2.03828        -0.16563        -2.76687
   C       -1.81417        -1.87689        -2.56885
   C       -3.01210        -2.49163        -2.20613
   C       -4.08720        -1.53848        -2.06097
   C       -5.37528        -1.98941        -1.68475
   C       -5.59465        -3.32471        -1.48525
   C       -6.87391        -3.78964        -1.10299
   N       -7.91242        -4.15476        -0.78468
   C       -4.53480        -4.27672        -1.67314
   C       -4.77417        -5.65370        -1.48147
   N       -4.91543        -6.78029        -1.31888
   C       -3.27663        -3.86302        -2.03137
   N       -0.59272        -2.46064        -2.75154
   C        0.34806        -1.84106        -3.66584
   C       -0.07129        -2.01226        -5.12266
   C       -0.21187        -3.56594        -1.98372
   C       -0.56473        -3.64064        -0.63301
   C       -0.23231        -4.75199         0.10826
   C        0.47455        -5.80558        -0.46436
   C        0.88463        -5.72164        -1.80182
   C        0.53036        -4.59955        -2.54414
   C        1.69960        -6.78346        -2.39031
   C        1.66108        -7.16055        -3.66022
   N        0.71045        -6.97948         0.29043
   C       -0.01960        -8.18134        -0.09385
   C        0.86227        -9.42150        -0.18701
   C        1.31251        -6.92996         1.49258
   C        2.03604        -5.88510         1.97656
   C        2.66318        -5.90981         3.24481
   O        3.35566        -4.82794         3.66638
   C        3.86912        -5.06249         4.91211
   C        3.48942        -6.34507         5.29028
   C        2.73079        -6.87657         4.24244
   F        2.17855        -8.09423         4.20219
   F        3.79575        -6.97731         6.41975
   C        4.64223        -4.01749         5.47137
   S        4.94011        -2.65805         4.43723
   C        5.86066        -1.81878         5.64580
   C        5.96240        -2.58992         6.80465
   C        5.24924        -3.83822         6.72224
   C        5.26434        -4.70620         7.82809
   C        5.98856        -4.38251         8.94598
   N        6.11077        -5.38787         9.98203
   O        7.21608        -5.54994        10.44530
   O        5.12304        -6.02852        10.24735
   C        6.72639        -3.17157         9.00822
   N        7.39673        -2.75145        10.22174
   O        6.86814        -3.04699        11.26629
   O        8.39037        -2.07509        10.08929
   C        6.71934        -2.29866         7.95553
   C        6.42149        -0.54020         5.36768
   S        7.09833        -0.20644         3.80477
   C        7.56598         1.36883         4.24995
   C        7.20874         1.67100         5.54633
   C        6.52915         0.58056         6.19557
   C        5.98594         0.77490         7.48077
   C        6.17238         1.97380         8.12246
   C        5.60927         2.18609         9.40226
   N        5.13683         2.34926        10.43302
   C        6.91601         3.03294         7.50343
   C        7.10327         4.24771         8.20459
   N        7.26274         5.24163         8.75111
   C        7.41332         2.88678         6.23585
   H       -4.29444         0.63431        -2.35769
   H       -6.17531        -1.27542        -1.55974
   H       -2.50042        -4.59646        -2.18634
   H        1.32901        -2.28673        -3.49414
   H        0.41525        -0.77285        -3.42613
   H        0.65526        -1.53504        -5.77401
   H       -1.04255        -1.55500        -5.29522
   H       -0.13700        -3.06564        -5.38399
   H       -1.11307        -2.83115        -0.17698
   H       -0.52838        -4.81826         1.14400
   H        0.84220        -4.54217        -3.57486
   H        2.37284        -7.27260        -1.69843
   H        0.98070        -6.72033        -4.37002
   H        2.29695        -7.94316        -4.03582
   H       -0.48308        -7.98807        -1.06288
   H       -0.82109        -8.36079         0.63320
   H        1.63636        -9.29376        -0.93850
   H        0.24749       -10.27134        -0.46994
   H        1.33501        -9.64528         0.76528
   H        1.22292        -7.83174         2.07958
   H        2.16389        -4.97851         1.40598
   H        4.73918        -5.64561         7.81353
   H        7.30022        -1.39203         8.02209
   H        8.07472         1.99826         3.54767
   H        5.40037        -0.00113         7.94980
   H        7.94708         3.69344         5.75673
*
