# ORCA input file
# SCF done       -185.119161990371          0.000919800246
! CAM-B3LYP def2-SVP def2/J RIJCOSX Grid4 TightSCF
%maxcore 5000
%tddft
    Mode sTDDFT
    Ethresh 5.0
    maxcore 5000
end

%pal
  nprocs 6
  end
* xyz 0 1
   C        1.36131         1.82980         0.84089
   C        0.51505         2.70087         1.45485
   S       -0.23926         1.97530         2.82614
   C        0.59957         0.46378         2.57030
  Cl        0.36346        -0.86167         3.59743
   C        1.41021         0.54726         1.47682
   C        2.33330        -0.33906         0.76153
   O        2.61247        -1.48419         1.02839
   C        2.90387         0.51693        -0.33185
   C        2.24608         1.82146        -0.30415
   C        2.36811         2.83818        -1.20957
   C        1.64773         4.04318        -1.05952
   N        1.06868         5.02688        -0.94915
   C        3.16435         2.80600        -2.37314
   N        3.78242         2.83820        -3.33959
   C        3.99210         0.20643        -1.07458
   C        4.64219        -1.08312        -1.14959
   C        6.03550        -1.13973        -1.17371
   C        6.69003        -2.35768        -1.19530
   N        8.12570        -2.33890        -1.05113
   O        8.70466        -1.33349        -1.39954
   O        8.65445        -3.30766        -0.54991
   C        5.98595        -3.57441        -1.26863
   C        4.58713        -3.49254        -1.29429
   C        3.92901        -2.28692        -1.22358
   C        6.66321        -4.84142        -1.39362
   C        6.20410        -5.99317        -0.85684
   C        6.91047        -7.22002        -0.99202
   N        6.55178        -8.38774        -0.35831
   C        5.37751        -8.60550         0.45070
   C        4.12284        -8.77608        -0.40258
   C        7.46639        -9.42400        -0.60923
   O        7.35044       -10.54698        -0.15396
   C        8.46019        -8.82388        -1.46826
   C        8.08048        -7.47787        -1.69899
   C        9.07397        -6.87745        -2.56410
   O        9.15506        -5.77483        -3.06496
   N       10.02074        -7.89640        -2.76434
   C       11.16896        -7.69471        -3.61548
   C       10.99023        -8.35274        -4.98110
   C        9.67061        -9.05928        -2.12074
   C       10.46507       -10.23069        -2.11843
   C       10.06892       -11.38175        -1.51586
   C       10.85155       -12.56003        -1.46987
   S       12.48257       -12.63052        -2.08361
   C       12.63700       -14.30260        -1.64472
   C       11.45413       -14.77543        -1.05343
   C       10.46936       -13.78409        -0.95580
   C       11.24586       -16.13879        -0.58016
   O       12.04890       -17.03841        -0.60299
   C       13.81698       -15.03257        -1.89583
   C       14.95934       -14.47673        -2.38821
   C       16.11240       -15.23726        -2.65960
   C       17.29728       -14.82126        -3.19721
   C       18.47776       -15.73318        -3.07775
   O       18.45405       -16.89600        -2.75267
   C       19.63308       -14.88596        -3.39362
   C       20.98979       -15.00431        -3.40510
   S       21.73126       -13.49607        -3.88785
   C       20.19578       -12.72948        -4.07645
   C       19.17919       -13.58252        -3.78032
   C       17.72474       -13.56318        -3.77653
   C       16.98548       -12.57625        -4.37763
   C       17.60485       -11.42544        -4.91163
   N       18.07840       -10.47106        -5.33797
   C       15.59996       -12.57703        -4.62829
   N       14.48818       -12.50171        -4.90697
  Cl       21.92506       -16.36463        -3.02524
   H        0.28507         3.71722         1.20344
   H        4.47320         0.99541        -1.64069
   H        6.62525        -0.23579        -1.12058
   H        4.01680        -4.40242        -1.39670
   H        2.85228        -2.26546        -1.26214
   H        7.59844        -4.85670        -1.93898
   H        5.31179        -5.99048        -0.24663
   H        5.25980        -7.77904         1.15728
   H        5.56517        -9.52454         1.01299
   H        3.93650        -7.89062        -1.00628
   H        3.26301        -8.95072         0.23819
   H        4.23950        -9.62810        -1.06774
   H       12.06595        -8.07287        -3.11714
   H       11.26448        -6.61228        -3.73778
   H       10.86471        -9.42883        -4.88496
   H       11.86327        -8.15866        -5.59751
   H       10.11473        -7.94360        -5.47945
   H       11.42687       -10.19585        -2.61225
   H        9.10004       -11.43227        -1.03525
   H        9.49636       -13.94731        -0.52713
   H       10.22821       -16.29551        -0.17463
   H       13.77372       -16.09285        -1.68168
   H       14.98362       -13.40955        -2.55564
   H       16.09628       -16.27820        -2.35172
   H       20.15895       -11.70326        -4.38331
*
