# ORCA input file
# SCF done       -137.406977995851          0.000657277345
! CAM-B3LYP def2-SVP def2/J RIJCOSX Grid4 TightSCF
%maxcore 5000
%tddft
    Mode sTDDFT
    Ethresh 5.0
    maxcore 5000
end

%pal
  nprocs 6
  end
* xyz 0 1
   C        2.02619        -5.85534        -4.07741
   C        1.31690        -6.59529        -4.97003
   S        1.69133        -8.27575        -4.82619
   C        2.82991        -7.97676        -3.53338
  Cl        3.68506        -9.24264        -2.79959
   C        2.89221        -6.64491        -3.25376
   C        3.60960        -5.77106        -2.32469
   O        4.42777        -6.10544        -1.48351
   C        3.13547        -4.40964        -2.62058
   C        2.16892        -4.46005        -3.70272
   C        1.49323        -3.42865        -4.30305
   C        0.58255        -3.66594        -5.35363
   N       -0.16192        -3.83794        -6.20979
   C        1.60455        -2.06214        -3.98334
   N        1.64746        -0.93279        -3.77670
   C        3.53429        -3.26431        -1.97331
   C        4.44238        -3.08922        -0.92393
   C        4.73541        -1.83974        -0.36588
   C        5.65150        -1.87720         0.66307
   C        6.09656        -3.16838         0.93195
   S        5.35886        -4.33701        -0.11859
   C        7.02076        -3.58344         1.91077
   S        7.80966        -2.47662         3.00993
   C        8.70820        -3.72713         3.81866
   C        8.41015        -4.96556         3.25308
   C        7.45781        -4.86994         2.19082
   N        7.20808        -6.11414         1.71200
   C        7.96528        -7.00683         2.43782
   C        7.95771        -8.38997         2.20532
   N        7.99568        -9.52473         2.04273
   C        8.71555        -6.34418         3.38463
   C        9.53258        -3.42721         4.95345
   C       10.37797        -4.38795         5.50783
   C       11.04655        -4.12712         6.70096
   C       10.91594        -2.84167         7.24348
   N       10.18663        -1.90063         6.68022
   C        9.50453        -2.17525         5.59219
   C       11.83878        -5.15187         7.34362
   C       11.55460        -6.47098         7.37513
   C       12.63224        -7.45585         7.73127
   O       13.66884        -7.21018         8.29437
   C       12.15162        -8.72616         7.17515
   C       12.63010        -9.99273         7.01065
   S       11.44613       -10.99578         6.20476
   C       10.31294        -9.69904         6.11125
   C       10.82154        -8.56342         6.66152
   C       10.37811        -7.20904         6.92420
   C        9.07197        -6.80427         6.92987
   C        8.03593        -7.64396         6.46800
   N        7.18877        -8.29824         6.05598
   C        8.61262        -5.56219         7.41345
   N        8.17124        -4.59268         7.83951
  Cl       14.13630       -10.60866         7.47792
   H        0.60075        -6.27921        -5.70220
   H        3.08610        -2.33622        -2.30790
   H        4.26976        -0.93945        -0.72683
   H        5.99489        -1.01679         1.20980
   H        6.56581        -6.35588         0.97399
   H        9.38602        -6.82640         4.06630
   H       10.53900        -5.32598         5.00160
   H       11.40507        -2.57644         8.16987
   H        8.90360        -1.36936         5.19138
   H       12.77114        -4.84719         7.80568
   H        9.36098        -9.86300         5.64521
*
