# ORCA input file
# SCF done       -139.725741726249          0.000794278359
! CAM-B3LYP def2-SVP def2/J RIJCOSX Grid4 TightSCF
%maxcore 5000
%tddft
    Mode sTDDFT
    Ethresh 5.0
    maxcore 5000
end

%pal
  nprocs 6
  end
* xyz 0 1
   C        7.10443        -7.29767         3.21362
   C        7.86910        -8.12914         3.97268
   S        9.04360        -8.95010         3.00969
   C        8.50494        -8.15932         1.54891
  Cl        9.20885        -8.48637         0.04044
   C        7.47024        -7.31218         1.82946
   C        6.62083        -6.39733         1.07898
   O        6.72094        -6.11539        -0.09967
   C        5.65394        -5.84629         2.07670
   C        5.99438        -6.38536         3.39648
   C        5.40000        -6.12739         4.60037
   C        5.85501        -6.74606         5.78639
   N        6.21046        -7.23763         6.75969
   C        4.31655        -5.25629         4.83593
   N        3.43959        -4.56633         5.10569
   C        4.66859        -4.94208         1.84692
   C        4.25076        -4.37196         0.58991
   C        4.25471        -5.05867        -0.62182
   C        3.91589        -4.39155        -1.80032
   C        3.44477        -3.07702        -1.67646
   N        3.39134        -2.43595        -0.52770
   C        3.80244        -3.03820         0.56624
   C        4.06971        -5.03816        -3.07619
   S        3.13702        -4.61081        -4.48311
   C        3.96702        -5.73182        -5.52357
   C        4.94020        -6.41068        -4.80404
   C        4.98095        -6.01313        -3.42602
   N        5.96578        -6.70930        -2.80242
   C        6.55073        -7.54014        -3.73573
   C        7.61064        -8.38695        -3.38422
   N        8.47951        -9.07698        -3.08979
   C        5.94320        -7.40080        -4.96494
   C        3.60923        -5.83511        -6.91172
   C        4.50035        -6.32946        -7.86540
   C        4.09949        -6.43520        -9.19335
   C        2.82023        -5.96327        -9.52275
   N        1.98086        -5.48329        -8.63182
   C        2.34258        -5.44113        -7.36841
   C        4.99179        -6.92430       -10.22115
   C        4.67257        -7.71483       -11.26620
   C        5.60253        -7.80884       -12.44022
   O        6.74839        -7.43445       -12.47644
   C        4.78018        -8.39354       -13.50467
   C        4.91547        -8.67846       -14.83116
   S        3.44616        -9.38824       -15.45768
   C        2.67051        -9.30208       -13.91908
   C        3.49196        -8.75271       -12.98454
   C        3.45421        -8.45844       -11.56572
   C        2.54521        -8.97001       -10.68239
   C        1.43625        -9.72138       -11.12690
   N        0.52808       -10.32533       -11.48153
   C        2.65642        -8.89277        -9.27939
   N        2.73021        -8.91864        -8.13456
  Cl        6.26436        -8.42259       -15.82233
   H        7.82797        -8.31954         5.02680
   H        4.14699        -4.54224         2.70794
   H        4.46066        -6.11569        -0.64667
   H        3.09494        -2.53403        -2.54464
   H        3.78777        -2.44375         1.46939
   H        6.31525        -6.55118        -1.86652
   H        6.18707        -7.95908        -5.84589
   H        5.49020        -6.64436        -7.57620
   H        2.48510        -5.94451       -10.55181
   H        1.59636        -5.07731        -6.67453
   H        6.01101        -6.55120       -10.20061
   H        1.66303        -9.65338       -13.81516
*
