# ORCA input file
# SCF done       -141.152496934231          0.000583954439
! CAM-B3LYP def2-SVP def2/J RIJCOSX Grid4 TightSCF
%maxcore 5000
%tddft
    Mode sTDDFT
    Ethresh 5.0
    maxcore 5000
end

%pal
  nprocs 6
  end
* xyz 0 1
   C        8.34777         1.94937        -3.56625
   C        8.44888         0.70442        -2.97368
   C        7.41563        -0.22008        -3.14364
   C        6.32655         0.19369        -3.91849
   N        6.22594         1.37910        -4.48513
   C        7.21514         2.23989        -4.31356
   C        7.40892        -1.55394        -2.56515
   C        8.38594        -2.09748        -1.84593
   C        8.32813        -3.48565        -1.26375
   C        9.10175        -4.46384        -2.17048
   N        6.93833        -3.95742        -1.25410
   N        6.43747        -4.65590        -0.41156
   C        7.12832        -5.18524         0.78637
   C        8.27061        -4.30547         1.12326
   C        8.87258        -3.49585         0.11520
   N        9.80848        -2.78893         0.68047
   O        9.80950        -3.13645         1.97776
   N        8.86837        -4.05138         2.25138
   C        6.10247        -5.26264         1.92158
   C        7.62497        -6.55556         0.41309
   S        9.20107        -7.06673         0.87482
   C        8.96397        -8.66271         0.24314
   C        7.70802        -8.77198        -0.34727
   C        6.94042        -7.56329        -0.24712
   C        5.65062        -7.51331        -0.81539
   C        5.11475        -8.60761        -1.44495
   C        3.75090        -8.46999        -1.96231
   C        2.78920        -9.38081        -1.91392
   C        5.90241        -9.79342        -1.60370
   C        5.40112       -10.96116        -2.39883
   C        7.15956        -9.85307        -1.07130
   C       10.02647        -9.60679         0.43129
   C        9.89457       -10.93320         0.48293
   C       11.03127       -11.88501         0.73270
   C       11.09742       -12.21541         2.24016
   N       10.66295       -13.14772         0.06790
   N       11.43188       -13.94256        -0.40781
   C       12.90065       -13.81526        -0.40812
   C       13.26836       -12.38592        -0.30695
   C       12.35824       -11.43543         0.25107
   N       12.91311       -10.26063         0.16049
   O       14.10865       -10.44918        -0.42262
   N       14.32262       -11.73984        -0.71410
   C       13.42981       -14.46245        -1.69075
   C       13.38045       -14.60554         0.80023
   C       12.74006       -15.78122         1.16674
   C       13.18599       -16.50089         2.27601
   C       14.28063       -15.97133         2.96691
   N       14.89950       -14.86355         2.61448
   C       14.47080       -14.19418         1.55980
   C       12.50379       -17.73065         2.65478
   C       12.86110       -18.55795         3.62906
   H        9.13109         2.68263        -3.44961
   H        9.31728         0.45568        -2.38241
   H        5.49146        -0.47535        -4.08701
   H        7.08951         3.20068        -4.79494
   H        6.51407        -2.13394        -2.74815
   H        9.30572        -1.57956        -1.61925
   H        8.62949        -4.48860        -3.14912
   H        9.09433        -5.46715        -1.74688
   H       10.12982        -4.12568        -2.27065
   H        5.69411        -4.27399         2.11766
   H        6.59137        -5.62847         2.82051
   H        5.29506        -5.93303         1.64341
   H        5.09176        -6.59213        -0.75137
   H        3.52492        -7.48685        -2.35829
   H        2.93166       -10.35491        -1.48033
   H        1.80147        -9.16875        -2.28734
   H        4.74716       -10.63560        -3.20384
   H        4.84205       -11.64645        -1.76179
   H        6.23818       -11.51310        -2.82138
   H        7.76564       -10.73028        -1.23583
   H       11.00561        -9.17217         0.58809
   H        8.93756       -11.42345         0.40242
   H       10.15094       -12.64861         2.55351
   H       11.27851       -11.29946         2.79640
   H       11.89813       -12.92544         2.44561
   H       13.05684       -13.92586        -2.56010
   H       13.09641       -15.49501        -1.74294
   H       14.51589       -14.42577        -1.69210
   H       11.89100       -16.13073         0.59667
   H       14.67895       -16.45614         3.84675
   H       15.02810       -13.30023         1.31498
   H       11.62916       -17.95960         2.05745
   H       13.72323       -18.38874         4.25062
   H       12.29481       -19.44862         3.83904
*
