# ORCA input file
# SCF done       -201.448239290016          0.000612901902
! CAM-B3LYP def2-SVP def2/J RIJCOSX Grid4 TightSCF
%maxcore 5000
%tddft
    Mode sTDDFT
    Ethresh 5.0
    maxcore 5000
end

%pal
  nprocs 6
  end
* xyz 0 1
   C       -3.90954         3.57365         7.74093
   N       -3.62682         4.87125         7.45113
   C       -3.47346         5.93702         8.40962
   C       -2.11393         5.87853         9.10107
   C       -3.43140         5.05802         6.06667
   O       -3.15966         6.13728         5.56896
   C       -3.63398         3.74750         5.50283
   C       -3.92621         2.85237         6.57925
   C       -4.13143         1.53065         6.01997
   O       -4.38972         0.46165         6.52299
   N       -3.94727         1.71542         4.63434
   C       -4.12211         0.62037         3.71108
   C       -5.49287         0.65366         3.03890
   C       -3.65870         3.02411         4.31428
   C       -3.43464         3.47291         2.98993
   C       -3.13203         4.77351         2.71896
   C       -2.89530         5.36792         1.46261
   S       -2.19475         6.95508         1.48631
   C       -2.15741         7.08504        -0.23735
   C       -2.64540         5.90196        -0.82549
   C       -3.10136         4.94277         0.13290
   C       -3.71204         3.76568        -0.32908
   C       -3.78032         3.51033        -1.68087
   C       -4.40209         2.32325        -2.13137
   N       -4.90671         1.34853        -2.46045
   C       -3.19772         4.40852        -2.62162
   C       -3.19446         4.08592        -3.99775
   N       -3.16970         3.83603        -5.11557
   C       -2.63635         5.58823        -2.19303
   C       -1.82752         8.26856        -0.93833
   N       -0.90611         9.21588        -0.56074
   C       -0.03536         9.19063         0.58976
   C       -0.61728         9.98818         1.75368
   C       -0.84407        10.28427        -1.48234
   O       -0.07637        11.21762        -1.37591
   C       -1.84447         9.95498        -2.46864
   C       -2.41821         8.71220        -2.12485
   C       -3.51442         8.47034        -3.03847
   O       -4.32533         7.56855        -3.11248
   N       -3.50673         9.57960        -3.90576
   C       -4.43536         9.61708        -5.00995
   C       -3.76101         9.27645        -6.33674
   C       -2.51529        10.48125        -3.57682
   C       -2.17135        11.72255        -4.14618
   C       -2.74600        12.41256        -5.17500
   C       -2.27103        13.65127        -5.63691
   S       -0.87032        14.41940        -4.95710
   C       -0.98441        15.78467        -6.01655
   C       -2.05746        15.62965        -6.91215
   C       -2.80269        14.43319        -6.68312
   C       -3.92765        14.15483        -7.47325
   C       -4.28278        15.02416        -8.48077
   C       -5.42813        14.75762        -9.26537
   N       -6.36046        14.51485        -9.88559
   C       -3.48296        16.17079        -8.76465
   C       -3.81883        17.00909        -9.85255
   N       -4.06810        17.69740       -10.73383
   C       -2.37650        16.45721        -8.00025
   C       -0.18212        16.94671        -5.89254
   N        1.12852        16.98937        -5.47592
   C        1.99881        15.86654        -5.22279
   C        2.31902        15.09013        -6.49652
   C        1.62894        18.30712        -5.46001
   O        2.77385        18.57723        -5.15942
   C        0.50420        19.12395        -5.85015
   C       -0.59054        18.25665        -6.12214
   C       -1.75312        19.07690        -6.38114
   O       -2.91579        18.80165        -6.60316
   N       -1.26882        20.39616        -6.29537
   C       -2.13191        21.51730        -6.57971
   C       -1.92804        22.04255        -7.99865
   C        0.06684        20.43594        -5.97978
   C        0.80372        21.65503        -5.81203
   C        2.10599        21.68007        -5.51867
   H       -4.08733         3.25752         8.75199
   H       -4.27952         5.87360         9.14622
   H       -3.56777         6.87293         7.85237
   H       -1.99482         4.93845         9.63529
   H       -2.02467         6.69708         9.80959
   H       -1.31745         5.96498         8.36604
   H       -4.03099        -0.29244         4.30649
   H       -3.32008         0.63395         2.96724
   H       -6.27453         0.56476         3.78912
   H       -5.58284        -0.17552         2.34272
   H       -5.64305         1.58453         2.49590
   H       -3.48123         2.73621         2.20494
   H       -3.02744         5.44608         3.56247
   H       -4.15217         3.06049         0.35596
   H       -2.17467         6.25482        -2.90174
   H        0.90764         9.64981         0.27783
   H        0.15001         8.15377         0.87928
   H       -0.74109        11.02689         1.45839
   H        0.05842         9.94394         2.60267
   H       -1.58335         9.59081         2.05584
   H       -4.92963        10.59151        -5.04418
   H       -5.19067         8.85805        -4.78377
   H       -2.93441         9.95212        -6.54651
   H       -4.48427         9.34227        -7.14495
   H       -3.37478         8.26066        -6.30337
   H       -1.31498        12.17358        -3.65702
   H       -3.61128        12.02703        -5.68940
   H       -4.51956        13.26848        -7.30255
   H       -1.75023        17.29661        -8.25068
   H        1.55253        15.20984        -4.47055
   H        2.91630        16.29687        -4.81094
   H        1.41743        14.67099        -6.93837
   H        3.00152        14.27729        -6.26638
   H        2.79025        15.74520        -7.22543
   H       -1.96404        22.30658        -5.84202
   H       -3.15452        21.14500        -6.47052
   H       -0.90045        22.36579        -8.15134
   H       -2.59099        22.88433        -8.17747
   H       -2.15784        21.26267        -8.72070
   H        0.25432        22.57795        -5.93547
   H        2.67447        20.77380        -5.39254
   H        2.63077        22.61197        -5.39812
*
