# ORCA input file
# SCF done       -137.244107116335          0.000650874198
! CAM-B3LYP def2-SVP def2/J RIJCOSX Grid4 TightSCF
%maxcore 5000
%tddft
    Mode sTDDFT
    Ethresh 5.0
    maxcore 5000
end

%pal
  nprocs 6
  end
* xyz 0 1
   C       -2.79683        -2.25903        -4.47744
   C       -1.71430        -1.73395        -5.17390
   C       -0.93489        -0.66604        -4.61488
   N        0.13995        -0.18993        -5.29165
   C        0.40780        -0.70883        -6.45273
   C       -0.37987        -1.74475        -7.01567
   N       -1.40119        -2.24724        -6.39188
   C       -1.25938        -0.12644        -3.35696
   C       -2.36516        -0.65861        -2.67014
   C       -3.12843        -1.73494        -3.23339
   N       -4.18326        -2.25608        -2.55409
   C       -4.47537        -1.73623        -1.40113
   C       -3.74903        -0.64245        -0.86396
   N       -2.73008        -0.12252        -1.47948
   C       -0.45494         0.93781        -2.76339
   C        0.00855         2.01408        -3.50966
   C        0.80057         3.00012        -2.91380
   C        1.05622         2.85233        -1.54359
   N        0.63193         1.82927        -0.83147
   C       -0.08764         0.89224        -1.41271
   C        1.30170         4.08954        -3.71787
   C        2.05172         5.12103        -3.27997
   C        2.57399         6.16709        -4.08880
   S        3.40739         7.50241        -3.33123
   C        3.75169         8.32099        -4.82797
   C        3.24438         7.57329        -5.88522
   C        2.58788         6.37332        -5.45692
   N        2.15158         5.71044        -6.56243
   C        2.52007         6.43921        -7.67699
   C        2.21479         6.00071        -8.97221
   N        1.96573         5.63542       -10.03138
   C        3.18638         7.58318        -7.30285
   C        4.45564         9.57430        -4.82489
   C        5.08427        10.04781        -3.67076
   C        5.77113        11.25969        -3.69186
   C        5.80847        11.94062        -4.91855
   N        5.20165        11.51877        -6.00957
   C        4.53837        10.38207        -5.97057
   C        6.44018        11.83427        -2.54447
   C        6.25131        11.44538        -1.27069
   C        6.87232        11.99923        -0.09672
   C        6.35772        11.60018         1.16131
   C        6.88069        12.13225         2.38407
   N        6.35277        11.76130         3.57948
   C        5.37003        10.91279         3.56841
   C        4.86469        10.36822         2.36203
   N        5.34400        10.70259         1.20041
   C        7.92905        13.04459         2.36028
   C        8.47181        13.42835         1.13858
   C        7.95526        12.90902        -0.09717
   N        8.53014        13.28608        -1.26309
   C        9.51606        14.13343        -1.22470
   C       10.00190        14.66550        -0.00627
   N        9.50092        14.31452         1.13887
   H       -3.37352        -3.06584        -4.89892
   H        1.27232        -0.31777        -6.97306
   H       -0.14557        -2.15974        -7.98694
   H       -5.31303        -2.16647        -0.86838
   H       -4.02657        -0.19420         0.08067
   H       -0.25618         2.09320        -4.55374
   H        1.62943         3.58580        -0.99396
   H       -0.37667         0.06022        -0.78761
   H        1.03081         4.03543        -4.76400
   H        2.29731         5.19943        -2.23050
   H        1.68571         4.82045        -6.59183
   H        3.58636         8.30972        -7.98012
   H        5.04818         9.45346        -2.76904
   H        6.34387        12.87642        -5.01103
   H        4.04021        10.10434        -6.88628
   H        7.11384        12.65140        -2.75529
   H        5.53369        10.66949        -1.04008
   H        4.95606        10.62958         4.52708
   H        4.06063         9.64429         2.36651
   H        8.31406        13.45763         3.27795
   H        9.95872        14.40657        -2.17372
   H       10.81902        15.37443         0.01149
*
