# ORCA input file
# SCF done       -167.362501622875          0.000958887368
! CAM-B3LYP def2-SVP def2/J RIJCOSX Grid4 TightSCF
%maxcore 5000
%tddft
    Mode sTDDFT
    Ethresh 5.0
    maxcore 5000
end

%pal
  nprocs 6
  end
* xyz 0 1
   C        1.69964         0.79888        -0.87772
   N        0.49864         0.36280        -0.66586
   C       -0.26275         1.47244        -0.42931
   C        0.55927         2.69345        -0.50776
   C       -0.27224         3.90065        -0.28906
   O        0.02811         5.06056        -0.38693
   C       -1.59172         3.30702         0.03335
   C       -1.53648         1.82324        -0.09156
   N       -2.74564         1.27728         0.20242
   C       -3.51363         2.28673         0.50557
   C       -2.85244         3.58707         0.43027
   C        1.83136         2.26324        -0.77932
   C        3.05335         2.99474        -0.86705
   N        3.25261         4.08880        -0.16401
   C        4.53537         4.45012        -0.37493
   C        5.20333         3.49637        -1.27421
   C        6.60180         3.89728        -1.53755
   O        7.39767         3.39608        -2.29315
   C        6.73974         5.09449        -0.68460
   C        5.45048         5.40324        -0.00890
   N        5.56923         6.51534         0.75535
   C        6.80837         6.90583         0.60528
   C        7.59535         6.06473        -0.28470
   C        4.26129         2.56861        -1.61439
   C        4.50727         1.42626        -2.44036
   N        3.74702         0.96414        -3.47745
   C        2.57435         1.59644        -4.03776
   C        2.93919         2.81083        -4.88482
   C        4.37796        -0.11899        -4.12915
   O        3.89219        -0.69430        -5.08137
   C        5.60483        -0.32923        -3.38429
   C        5.63929         0.62828        -2.34577
   C        6.83804         0.41611        -1.55630
   O        7.25347         0.93815        -0.54974
   N        7.48927        -0.64382        -2.22370
   C        8.74262        -1.17348        -1.74209
   C        8.55268        -2.49787        -1.00750
   C        6.78001        -1.09017        -3.30810
   C        7.23668        -2.08303        -4.20693
   C        6.51150        -2.42123        -5.30857
   C        6.95498        -3.32337        -6.30235
   N        7.98733        -4.14563        -6.17395
   C        8.04442        -4.85096        -7.31411
   C        6.96933        -4.45245        -8.24981
   C        7.08094        -5.20107        -9.52455
   O        6.43739        -5.07363       -10.53539
   C        8.21193        -6.10921        -9.25018
   C        8.77673        -5.85234        -7.90512
   N        9.82469        -6.67412        -7.66148
   C        9.94038        -7.41092        -8.74033
   C        8.96462        -7.11157        -9.77056
   C        6.26786        -3.47679        -7.61144
   C        5.15397        -2.66463        -8.00086
   N        4.03263        -3.14164        -8.50256
   C        3.21177        -2.07909        -8.63174
   C        3.88990        -0.83123        -8.18452
   C        2.96757         0.31828        -8.26504
   O        3.16376         1.46674        -7.94078
   C        1.74455        -0.29715        -8.81088
   C        1.94018        -1.75631        -9.01356
   N        0.80961        -2.31942        -9.50997
   C       -0.04400        -1.33647        -9.62644
   C        0.47258        -0.04590        -9.20788
   C        5.12567        -1.20665        -7.79976
   H        2.50771         0.11588        -1.07543
   H       -4.54306         2.12622         0.77624
   H       -3.31250         4.53039         0.64758
   H        7.16945         7.77877         1.12122
   H        8.62598         6.21843        -0.53591
   H        1.89713         1.88197        -3.22874
   H        2.08536         0.84216        -4.65951
   H        3.54135         3.51319        -4.31185
   H        2.03285         3.31312        -5.20978
   H        3.49190         2.50411        -5.76900
   H        9.14100        -0.42218        -1.05484
   H        9.43613        -1.28945        -2.57910
   H        7.89221        -2.36032        -0.15472
   H        9.51251        -2.85681        -0.64742
   H        8.12233        -3.25118        -1.66355
   H        8.20038        -2.54507        -4.05108
   H        5.54555        -1.96353        -5.47132
   H       10.71411        -8.15604        -8.80771
   H        8.89210        -7.59996       -10.72186
   H       -1.03455        -1.51923       -10.00673
   H       -0.07131         0.87798        -9.22683
   H        5.94565        -0.61695        -7.43969
*
