# ORCA input file
# SCF done       -174.297272395492          0.000844930426
! CAM-B3LYP def2-SVP def2/J RIJCOSX Grid4 TightSCF
%maxcore 5000
%tddft
    Mode sTDDFT
    Ethresh 5.0
    maxcore 5000
end

%pal
  nprocs 6
  end
* xyz 0 1
   C        2.02907         0.95628         0.21308
   C        0.97176         0.14937        -0.19263
   C        0.88520        -1.23546         0.19736
   N       -0.18371        -1.97314        -0.19497
   C       -1.08739        -1.40606        -0.93489
   C       -0.98474        -0.05114        -1.34217
   N        0.00811         0.69929        -0.97699
   C        1.86655        -1.83099         1.01153
   C        2.91939        -1.00271         1.42671
   C        3.00173         0.38614         1.01990
   N        4.09816         0.98279         1.51340
   S        4.92003        -0.08070         2.37411
   N        3.96797        -1.34940         2.18824
   C        1.79820        -3.22988         1.42512
   C        2.22394        -3.60428         2.69631
   C        2.16356        -4.92749         3.09843
   N        2.70801        -5.25458         4.38962
   O        2.77178        -4.36658         5.21256
   O        3.10448        -6.38846         4.56566
   C        1.66208        -5.93578         2.25824
   C        1.26075        -5.54332         0.97719
   C        1.32762        -4.22994         0.56688
   C        1.49653        -7.30035         2.70787
   C        1.74094        -8.38005         1.93883
   C        1.54021        -9.70664         2.41882
   N        1.95790       -10.83590         1.75339
   C        2.72130       -10.88212         0.53090
   C        4.18688       -10.52222         0.76297
   C        1.64890       -12.00959         2.46357
   O        1.93180       -13.12465         2.06773
   C        0.96456       -11.54273         3.64627
   C        0.91364       -10.12286         3.58550
   C        0.21688        -9.65199         4.75896
   O       -0.08402        -8.53765         5.14032
   N       -0.09537       -10.82414         5.46938
   C       -0.83982       -10.76783         6.70286
   C       -2.31229       -11.11601         6.49532
   C        0.34096       -11.95673         4.81808
   C        0.16976       -13.27094         5.33293
   C        0.61726       -14.36884         4.68172
   C        0.51188       -15.72858         5.14212
   C        1.14934       -16.73404         4.40571
   C        1.10350       -18.05299         4.81269
   N        1.93713       -18.98367         4.08520
   O        1.92205       -18.91665         2.87658
   O        2.64165       -19.72384         4.73619
   C        0.37559       -18.45184         5.94692
   C       -0.23424       -17.43272         6.69088
   C       -0.16976       -16.11446         6.30682
   C        0.18092       -19.82746         6.34043
   C        0.06808       -20.85893         5.48254
   C       -0.13125       -22.22863         5.85665
   C       -0.20605       -23.20979         4.84120
   C       -0.34628       -24.60840         5.14251
   N       -0.38848       -25.52326         4.13798
   C       -0.29843       -25.08995         2.91794
   C       -0.17893       -23.70884         2.61832
   N       -0.13826       -22.80511         3.55065
   C       -0.43688       -25.05864         6.45547
   C       -0.38609       -24.11079         7.46775
   C       -0.23149       -22.69722         7.18102
   N       -0.20621       -21.97431         8.30721
   S       -0.35339       -22.95748         9.56495
   N       -0.46251       -24.34552         8.78651
   H        2.07934         1.98624        -0.09650
   H       -1.93177        -2.01737        -1.22454
   H       -1.74095         0.40519        -1.96675
   H        2.61755        -2.87285         3.38450
   H        0.86214        -6.29164         0.30919
   H        1.01356        -3.96414        -0.42902
   H        1.15591        -7.44841         3.72465
   H        2.14869        -8.25963         0.94462
   H        2.26924       -10.21597        -0.20995
   H        2.64797       -11.91158         0.16877
   H        4.28137        -9.52122         1.17826
   H        4.73134       -10.56702        -0.17632
   H        4.63491       -11.22720         1.45869
   H       -0.75465        -9.73688         7.05801
   H       -0.38082       -11.43155         7.44139
   H       -2.76289       -10.41345         5.79870
   H       -2.84299       -11.05539         7.44156
   H       -2.42462       -12.12039         6.09228
   H       -0.32314       -13.35989         6.28972
   H        1.11586       -14.23574         3.73077
   H        1.71286       -16.47551         3.52072
   H       -0.78752       -17.70765         7.57649
   H       -0.66504       -15.37088         6.91123
   H        0.05288       -20.00926         7.39824
   H        0.10833       -20.70724         4.41212
   H       -0.32622       -25.83275         2.13184
   H       -0.12268       -23.35707         1.59704
   H       -0.53652       -26.10931         6.66855
*
