# ORCA input file
# SCF done       -146.428751446803          0.000481410539
! CAM-B3LYP def2-SVP def2/J RIJCOSX Grid4 TightSCF
%maxcore 5000
%tddft
    Mode sTDDFT
    Ethresh 5.0
    maxcore 5000
end

%pal
  nprocs 6
  end
* xyz 0 1
   C        3.46188         0.57209        -5.98904
   C        2.87903         1.39099        -6.90652
   S        2.64725         2.97742        -6.26896
   C        3.34928         2.53266        -4.73097
  Cl        3.48698         3.65045        -3.46651
   C        3.73124         1.22431        -4.74449
   C        4.35426         0.28458        -3.80836
   O        4.69136         0.51471        -2.66839
   C        4.48155        -0.99112        -4.57265
   C        3.89699        -0.80692        -5.89853
   C        3.73335        -1.72606        -6.90109
   C        3.13667        -1.36658        -8.12938
   N        2.65684        -1.09810        -9.13608
   C        4.09126        -3.08886        -6.87106
   N        4.34590        -4.20776        -6.92275
   C        5.07689        -2.15690        -4.18423
   C        5.68063        -2.55374        -2.96875
   S        6.39269        -4.15668        -2.94276
   C        6.87458        -3.99601        -1.29386
   C        6.48948        -2.74490        -0.79535
   C        5.82510        -1.94693        -1.73654
   C        6.71793        -2.28554         0.51452
   N        6.88086        -1.87468         1.57334
   C        7.55791        -5.07854        -0.66647
   C        7.95828        -5.10120         0.62040
   C        8.64105        -6.19219         1.27629
   C        8.83783        -6.13182         2.65801
   C        9.48265        -7.17472         3.32055
   C        9.91229        -8.25253         2.53327
   N        9.74711        -8.31531         1.22861
   C        9.13571        -7.32451         0.61247
   C        9.69723        -7.16351         4.75071
   S       10.48862        -8.48631         5.54809
   C       10.32658        -7.74887         7.11318
   C        9.68128        -6.51006         7.00462
   C        9.34862        -6.20570         5.66484
   C        9.32313        -5.54878         8.03906
   O        9.35021        -5.68514         9.23825
   C       10.90828        -8.47521         8.18630
   C       10.95911        -8.10195         9.48804
   C       11.61283        -8.87092        10.48125
   C       11.93302        -8.43815        11.73093
   C       12.25538        -9.42264        12.80877
   O       12.51053       -10.59357        12.66126
   C       12.13185        -8.64942        14.05124
   C       12.19112        -8.89065        15.39101
   S       11.91963        -7.41747        16.29209
   C       11.74089        -6.49058        14.84622
   C       11.87436        -7.27197        13.74234
   C       11.87726        -7.10366        12.30015
   C       12.00508        -5.90251        11.65549
   C       11.96162        -4.68544        12.36874
   N       11.92294        -3.69086        12.93889
   C       12.30809        -5.73575        10.28844
   N       12.62434        -5.53443         9.20358
  Cl       12.47896       -10.36369        16.17661
   H        2.57001         1.17979        -7.91083
   H        5.10820        -2.93859        -4.93467
   H        5.46332        -0.95714        -1.52292
   H        7.73640        -5.93055        -1.30801
   H        7.75206        -4.24722         1.25054
   H        8.47796        -5.27180         3.20272
   H       10.41453        -9.09827         2.98544
   H        9.04624        -7.43649        -0.45854
   H        8.85092        -5.29013         5.39879
   H        8.96537        -4.59775         7.60269
   H       11.39922        -9.39589         7.89039
   H       10.46938        -7.19085         9.79587
   H       11.82568        -9.91355        10.26910
   H       11.54049        -5.43988        14.91557
*
