# ORCA input file
# SCF done       -179.456671527966          0.000554522612
! CAM-B3LYP def2-SVP def2/J RIJCOSX Grid4 TightSCF
%maxcore 5000
%tddft
    Mode sTDDFT
    Ethresh 5.0
    maxcore 5000
end

%pal
  nprocs 6
  end
* xyz 0 1
   C        1.53607        -1.09292        -5.91377
   C        0.91267        -0.50578        -6.97120
   S        1.69746        -0.89997        -8.45677
   C        2.89398        -1.87891        -7.64189
  Cl        4.11914        -2.67432        -8.49744
   C        2.67007        -1.87925        -6.29685
   C        3.28250        -2.47668        -5.10992
   O        4.25443        -3.20026        -5.06672
   C        2.45837        -2.00191        -3.96590
   C        1.38171        -1.15713        -4.47349
   C        0.38695        -0.52892        -3.77537
   C       -0.58428         0.25413        -4.43727
   N       -1.38114         0.89401        -4.95806
   C        0.18452        -0.56365        -2.38010
   N       -0.05385        -0.54029        -1.25754
   C        2.67243        -2.29112        -2.65277
   C        3.66638        -3.09921        -2.05174
   S        4.94758        -4.03251        -2.80801
   C        5.37811        -4.51649        -1.18776
   N        4.59839        -3.98151        -0.26563
   N        3.67582        -3.21928        -0.73869
   C        6.44870        -5.40457        -0.90726
   C        6.74524        -5.78650         0.36127
   C        7.78449        -6.70053         0.66403
   N        8.09984        -7.10520         1.94060
   C        7.51112        -6.62154         3.16624
   C        8.04076        -5.24093         3.54512
   C        9.14249        -8.05166         1.95359
   O        9.59003        -8.55495         2.96242
   C        9.47190        -8.22604         0.55614
   C        8.63293        -7.38264        -0.20800
   C        8.96874        -7.58847        -1.59802
   O        8.53677        -7.09646        -2.62094
   N        9.98864        -8.56520        -1.58146
   C       10.60736        -8.96217        -2.82331
   C       11.98792        -8.33464        -2.99958
   C       10.29493        -8.95463        -0.29777
   C       11.20473        -9.93467         0.18911
   C       12.00791       -10.78643        -0.48486
   C       12.84674       -11.78904         0.12591
   C       13.56196       -12.65709        -0.69987
   C       14.34910       -13.67167        -0.17998
   N       14.99681       -14.52348        -1.14149
   O       15.18701       -14.06578        -2.24737
   O       15.31601       -15.64917        -0.80813
   C       14.47070       -13.86633         1.21021
   C       13.77602       -12.96241         2.02627
   C       12.98475       -11.96394         1.51214
   C       15.26870       -14.92753         1.77945
   C       15.04039       -15.49025         2.98010
   C       15.81584       -16.57566         3.50198
   C       16.32459       -17.64097         2.84212
   C       17.37724       -18.46999         3.52069
   O       17.69137       -18.40708         4.68442
   C       17.93669       -19.29814         2.45023
   C       18.95278       -20.19602         2.30463
   S       19.01755       -20.78517         0.66162
   C       17.66294       -19.82254         0.19383
   C       17.19730       -19.08880         1.23912
   C       16.11005       -18.16092         1.49548
   C       15.01805       -18.02421         0.68700
   C       14.93201       -18.70061        -0.55027
   N       14.83984       -19.25779        -1.54806
   C       13.85429       -17.28968         0.98510
   N       12.86380       -16.74315         1.17936
  Cl       20.05030       -20.73088         3.47889
   H        0.04991         0.13000        -6.98675
   H        2.00615        -1.86300        -1.91300
   H        7.01631        -5.77795        -1.74822
   H        6.15026        -5.38550         1.16873
   H        7.78684        -7.34606         3.93774
   H        6.42231        -6.60578         3.06871
   H        9.11999        -5.27834         3.67252
   H        7.59155        -4.92050         4.48080
   H        7.80619        -4.50861         2.77605
   H        9.94142        -8.59868        -3.61208
   H       10.64885       -10.05248        -2.88452
   H       11.89886        -7.25145        -3.02804
   H       12.42764        -8.67012        -3.93474
   H       12.65238        -8.60356        -2.18150
   H       11.18286        -9.97680         1.27033
   H       12.04744       -10.77355        -1.56284
   H       13.49621       -12.56649        -1.77485
   H       13.88068       -13.04729         3.09620
   H       12.46702       -11.30714         2.19272
   H       16.08102       -15.31612         1.18077
   H       14.25956       -15.11311         3.62685
   H       16.05649       -16.53235         4.56083
   H       17.31520       -19.85865        -0.81928
*
