# ORCA input file
# SCF done       -191.429186125859          0.000373555766
! CAM-B3LYP def2-SVP def2/J RIJCOSX Grid4 TightSCF
%maxcore 5000
%tddft
    Mode sTDDFT
    Ethresh 5.0
    maxcore 5000
end

%pal
  nprocs 6
  end
* xyz 0 1
   C        3.47815         3.03224        -0.43410
   C        3.23767         4.35919        -0.25026
   S        4.67373         5.19447         0.21443
   C        5.62240         3.72754         0.16221
  Cl        7.27516         3.73148         0.53155
   C        4.84243         2.66857        -0.19740
   C        5.02740         1.22915        -0.40588
   O        6.05467         0.60055        -0.30402
   C        3.67786         0.73094        -0.83051
   C        2.73292         1.84681        -0.79993
   C        1.38135         1.81308        -1.00789
   C        0.59902         2.98573        -0.92418
   N       -0.05065         3.92887        -0.86172
   C        0.61120         0.66655        -1.29183
   N       -0.07901        -0.22486        -1.50833
   C        3.38655        -0.49379        -1.33582
   C        4.19282        -1.68782        -1.37356
   C        3.96672        -2.59864        -2.41046
   C        4.69201        -3.77046        -2.49746
   N        4.33192        -4.69106        -3.54947
   O        3.84621        -4.22022        -4.55397
   O        4.50046        -5.87401        -3.34569
   C        5.68067        -4.10107        -1.54936
   C        5.85690        -3.20092        -0.48943
   C        5.13468        -2.03421        -0.39359
   C        6.50658        -5.27309        -1.68960
   C        7.00999        -5.97722        -0.65188
   C        7.81587        -7.13282        -0.84891
   N        8.23589        -7.95947         0.16735
   C        7.92003        -7.83451         1.56949
   C        6.50465        -8.31618         1.87927
   C        8.97698        -9.05184        -0.31532
   O        9.44675        -9.91311         0.40275
   C        9.01864        -8.85213        -1.74623
   C        8.30647        -7.65946        -2.03839
   C        8.36506        -7.44569        -3.46727
   O        7.94605        -6.55380        -4.17645
   N        9.09481        -8.54603        -3.95224
   C        9.31263        -8.72472        -5.36732
   C        8.31571        -9.71012        -5.97285
   C        9.48515        -9.39221        -2.94154
   C       10.22684       -10.58675        -3.15799
   C       10.63333       -11.38057        -2.14186
   C       11.37965       -12.60548        -2.28145
   C       11.97178       -13.16407        -1.14621
   C       12.70450       -14.33538        -1.22615
   N       13.25654       -14.85241         0.00001
   O       13.41424       -14.07220         0.91303
   O       13.52948       -16.03563         0.05260
   C       12.87085       -15.01872        -2.44517
   C       12.25764       -14.45703        -3.57263
   C       11.53881       -13.28767        -3.49818
   C       13.68425       -16.20556        -2.58222
   C       13.39204       -17.22315        -3.41654
   C       14.16310       -18.41875        -3.53116
   C       15.48868       -18.62961        -3.33110
   C       15.95631       -20.04319        -3.13764
   O       15.32008       -21.04265        -3.36455
   C       17.30816       -19.90876        -2.58591
   C       18.27488       -20.73036        -2.08800
   S       19.67191       -19.80210        -1.59495
   C       18.93759       -18.31775        -2.07903
   C       17.69091       -18.52700        -2.58047
   C       16.62205       -17.73560        -3.16087
   C       16.78336       -16.46046        -3.63427
   C       17.99442       -15.75798        -3.45872
   N       18.96740       -15.16749        -3.31516
   C       15.82887       -15.74611        -4.38043
   N       15.09896       -15.12390        -5.01142
  Cl       18.23352       -22.41516        -1.92458
   H        2.32259         4.90682        -0.35820
   H        2.42195        -0.60722        -1.81739
   H        3.21912        -2.39786        -3.16477
   H        6.60525        -3.41937         0.25623
   H        5.28973        -1.38640         0.45211
   H        6.71861        -5.61274        -2.69521
   H        6.76066        -5.70781         0.36480
   H        8.05770        -6.79627         1.88456
   H        8.64373        -8.46077         2.09880
   H        5.76540        -7.74498         1.32190
   H        6.30362        -8.20943         2.94167
   H        6.40386        -9.36466         1.61049
   H       10.34251        -9.04800        -5.54272
   H        9.17171        -7.73976        -5.82114
   H        8.39478       -10.68778        -5.50195
   H        8.50353        -9.81640        -7.03765
   H        7.30247        -9.34172        -5.83387
   H       10.47220       -10.83313        -4.18056
   H       10.40653       -11.08280        -1.12650
   H       11.86182       -12.68320        -0.18487
   H       12.40061       -14.93950        -4.52636
   H       11.08297       -12.89876        -4.39495
   H       14.54516       -16.29213        -1.93310
   H       12.45470       -17.21544        -3.95689
   H       13.59975       -19.32087        -3.75384
   H       19.47324       -17.39847        -1.94832
*
