# ORCA input file
# SCF done       -169.878319661652          0.000772907896
! CAM-B3LYP def2-SVP def2/J RIJCOSX Grid4 TightSCF
%maxcore 5000
%tddft
    Mode sTDDFT
    Ethresh 5.0
    maxcore 5000
end

%pal
  nprocs 6
  end
* xyz 0 1
   C        0.95810         1.92021         1.47692
   C        0.17155         2.93055         1.93891
   S       -0.24562         2.68849         3.59484
   C        0.65795         1.19459         3.67288
  Cl        0.73243         0.28084         5.09651
   C        1.23699         0.92493         2.46794
   C        2.08197        -0.13131         1.90304
   O        2.51694        -1.10616         2.46878
   C        2.34024         0.30600         0.49020
   C        1.60478         1.54535         0.23791
   C        1.47730         2.22249        -0.94303
   C        0.71450         3.40808        -1.02800
   N        0.10241         4.37428        -1.11162
   C        2.03630         1.84339        -2.18106
   N        2.44902         1.58644        -3.22078
   C        3.24368        -0.23486        -0.36152
   C        3.98280        -1.46887        -0.22822
   C        5.27975        -1.51957        -0.74625
   C        6.03610        -2.67179        -0.64814
   N        7.42065        -2.57253        -1.05342
   O        7.66020        -1.91361        -2.04087
   O        8.25047        -3.11392        -0.35717
   C        5.51006        -3.85237        -0.09720
   C        4.20819        -3.78623         0.41182
   C        3.46026        -2.63188         0.35168
   C        6.21075        -5.11962        -0.10446
   C        6.97112        -5.55785        -1.12344
   C        7.65862        -6.80998        -1.14582
   S        8.43542        -7.33136        -2.61395
   C        9.00433        -8.79033        -1.87430
   C        8.62648        -8.84095        -0.53284
   C        7.85247        -7.72942        -0.14500
   C        9.07695        -9.82612         0.44521
   O        8.53782       -10.04592         1.50039
   C        9.69507        -9.74255        -2.68173
   C        9.78230       -11.06207        -2.42006
   C       10.49471       -12.03551        -3.21483
   C       11.02792       -11.76054        -4.47253
   C       11.69992       -12.73252        -5.19576
   N       12.15083       -12.34191        -6.50548
   O       12.33931       -11.16073        -6.69827
   O       12.31118       -13.20345        -7.34940
   C       11.89632       -14.03281        -4.68850
   C       11.35855       -14.29085        -3.42098
   C       10.66789       -13.33534        -2.71470
   C       12.63097       -15.04130        -5.41599
   C       12.49567       -16.36958        -5.25020
   C       13.23352       -17.32731        -6.01949
   C       13.56110       -17.27090        -7.33038
   C       14.63085       -18.18895        -7.84860
   O       15.10542       -19.13131        -7.26255
   C       14.97652       -17.64027        -9.16205
   C       15.89901       -17.87959       -10.13765
   S       15.69123       -16.76191       -11.46374
   C       14.35416       -15.99089       -10.69044
   C       14.09142       -16.55822        -9.48351
   C       13.12178       -16.39870        -8.41492
   C       11.93911       -15.72942        -8.54877
   C       11.62261       -15.02696        -9.73284
   N       11.34334       -14.47257       -10.69676
   C       10.89337       -15.70745        -7.60607
   N        9.99178       -15.67795        -6.89641
  Cl       17.11271       -19.06118       -10.16057
   H       -0.18905         3.80076         1.42731
   H        3.49104         0.33068        -1.25268
   H        5.72624        -0.64173        -1.19133
   H        3.77579        -4.67847         0.83822
   H        2.45123        -2.63625         0.72739
   H        6.02960        -5.76093         0.74579
   H        7.07587        -4.96107        -2.02087
   H        7.49413        -7.61381         0.86150
   H       10.01401       -10.34499         0.16298
   H       10.13250        -9.33891        -3.58473
   H        9.28219       -11.46111        -1.54839
   H       10.90610       -10.79098        -4.93027
   H       11.50763       -15.26392        -2.98134
   H       10.26113       -13.58278        -1.74521
   H       13.32762       -14.69686        -6.16813
   H       11.84016       -16.77227        -4.49019
   H       13.61349       -18.19254        -5.48332
   H       13.86590       -15.16906       -11.17510
*
