# ORCA input file
# SCF done       -172.034602655684          0.000811236010
! CAM-B3LYP def2-SVP def2/J RIJCOSX Grid4 TightSCF
%maxcore 5000
%tddft
    Mode sTDDFT
    Ethresh 5.0
    maxcore 5000
end

%pal
  nprocs 6
  end
* xyz 0 1
   C        4.39359         3.35364         0.75766
   C        4.31547         4.68597         1.02537
   S        3.84900         5.57670        -0.37600
   C        3.75499         4.12472        -1.34712
  Cl        3.32109         4.18312        -2.98248
   C        4.07478         3.03121        -0.60022
   C        4.16476         1.57882        -0.81323
   O        3.88775         0.96743        -1.81287
   C        4.57957         1.03403         0.52411
   C        4.71860         2.13403         1.46792
   C        5.12871         2.08243         2.77427
   C        5.22816         3.25282         3.55694
   N        5.31075         4.19167         4.21096
   C        5.50301         0.92393         3.48392
   N        5.82990         0.02540         4.11982
   C        4.67907        -0.28404         0.85153
   C        4.66339        -1.38897        -0.02956
   N        4.89205        -1.39858        -1.30585
   C        4.80608        -2.61656        -1.81454
   C        4.49341        -3.65381        -0.89394
   S        4.33281        -3.01159         0.68117
   N        4.38928        -4.87305        -1.40018
   C        4.61105        -4.85887        -2.69127
   S        4.98820        -3.26404        -3.39247
   C        4.55201        -5.98538        -3.54439
   N        4.21173        -7.26224        -3.17991
   C        3.93272        -7.74041        -1.84659
   C        5.21610        -7.97519        -1.05680
   C        4.21158        -8.13310        -4.28729
   O        3.92762        -9.31077        -4.21507
   C        4.58803        -7.29573        -5.40833
   C        4.78910        -5.98751        -4.91534
   C        5.16612        -5.13438        -6.01822
   O        5.43359        -3.95179        -6.06523
   N        5.17814        -5.99703        -7.12762
   C        5.46767        -5.50662        -8.45417
   C        4.19440        -5.27187        -9.26268
   C        4.82454        -7.28275        -6.78556
   C        4.72902        -8.34583        -7.71278
   C        4.33774        -9.60012        -7.35852
   C        4.21269       -10.63798        -8.30929
   N        4.45652       -10.51817        -9.58895
   C        4.22683       -11.65737       -10.22486
   C        3.77504       -12.74261        -9.43118
   S        3.65688       -12.25263        -7.79464
   N        3.54623       -13.88025       -10.06895
   C        3.79362       -13.76747       -11.34555
   S        4.34341       -12.14835       -11.85923
   C        3.60204       -14.76967       -12.32177
   C        3.30570       -16.08152       -12.12788
   C        2.72581       -16.86155       -13.27151
   O        2.72902       -16.53754       -14.43341
   C        2.12630       -18.03797       -12.63459
   C        1.36978       -19.10622       -13.01689
   S        1.01063       -20.12414       -11.64309
   C        1.89749       -19.10168       -10.57063
   C        2.42799       -18.03939       -11.23170
   C        3.27853       -16.90166       -10.93024
   C        4.05388       -16.78537        -9.81028
   C        3.93310       -17.69658        -8.74000
   N        3.83296       -18.42382        -7.85849
   C        5.10547       -15.86016        -9.65186
   N        6.03342       -15.20140        -9.50258
  Cl        0.80676       -19.48504       -14.56825
   H        4.49272         5.20778         1.94474
   H        4.76574        -0.55440         1.89646
   H        3.39091        -8.68195        -1.96883
   H        3.30425        -7.01109        -1.33297
   H        5.85582        -8.68287        -1.57862
   H        4.97286        -8.37916        -0.07871
   H        5.75246        -7.03965        -0.92311
   H        6.13029        -6.20945        -8.96580
   H        5.99478        -4.55840        -8.31677
   H        3.63110        -6.19474        -9.38083
   H        4.45051        -4.88974       -10.24672
   H        3.56471        -4.54197        -8.75997
   H        4.96477        -8.15727        -8.74966
   H        4.09597        -9.83845        -6.33180
   H        3.61075       -14.43305       -13.35252
   H        1.95502       -19.35295        -9.53019
*
