# ORCA input file
# SCF done       -175.900113734771          0.000976829937
! CAM-B3LYP def2-SVP def2/J RIJCOSX Grid4 TightSCF
%maxcore 5000
%tddft
    Mode sTDDFT
    Ethresh 5.0
    maxcore 5000
end

%pal
  nprocs 6
  end
* xyz 0 1
   C        2.14986         0.61237        -4.27724
   C        1.09331         1.41668        -4.57111
   S       -0.39768         0.68252        -4.10475
   C        0.41753        -0.74032        -3.49806
  Cl       -0.44628        -2.03299        -2.82576
   C        1.76559        -0.62468        -3.66353
   C        2.95489        -1.43061        -3.37004
   O        3.01527        -2.50398        -2.81578
   C        4.10210        -0.58350        -3.82109
   C        3.59033         0.63875        -4.42051
   C        4.30705         1.60068        -5.07951
   C        3.67836         2.73769        -5.62860
   N        3.17325         3.66692        -6.07297
   C        5.69425         1.53906        -5.32123
   N        6.81175         1.50891        -5.58131
   C        5.39702        -0.82855        -3.48972
   C        5.92906        -2.03662        -2.94460
   N        5.73120        -3.31371        -3.40443
   C        5.13785        -3.69295        -4.66442
   C        5.93420        -3.14910        -5.84665
   C        6.39824        -4.25658        -2.60872
   O        6.39825        -5.45456        -2.84094
   C        7.03140        -3.47764        -1.56942
   C        6.75830        -2.11419        -1.83334
   C        7.36119        -1.31612        -0.78452
   O        7.38805        -0.12383        -0.58106
   N        7.99682        -2.26760         0.04139
   C        8.68672        -1.86938         1.24445
   C        7.81862        -2.06008         2.48572
   C        7.79564        -3.55234        -0.39944
   C        8.28865        -4.70944         0.24769
   C        8.02805        -5.94356        -0.26203
   C        8.41793        -7.18143         0.27858
   S        9.34009        -7.39237         1.75473
   C        9.29016        -9.11604         1.61499
   C        8.61582        -9.50267         0.51227
   C        8.11264        -8.42727        -0.26480
   C        7.39018        -8.78858        -1.43916
   C        7.27980       -10.12247        -1.64760
   S        8.11869       -11.02072        -0.31149
   O        9.25931       -11.73625        -0.80971
   O        7.17507       -11.75201         0.48664
   C        6.65300       -10.87733        -2.66276
   C        6.06363       -10.35174        -3.76628
   C        5.42789       -11.11094        -4.78583
   S        4.85678       -10.31648        -6.21848
   C        4.28292       -11.81574        -6.86747
   C        3.71992       -11.84545        -8.19421
   O        3.51554       -10.87191        -8.88156
   C        4.51599       -12.87755        -5.99787
   C        5.16616       -12.46887        -4.83005
   C        4.09871       -14.25739        -6.27434
   C        5.03472       -15.30093        -6.19431
   O        6.32478       -14.96060        -5.84325
   C        6.82876       -15.55737        -4.66374
   C        4.63273       -16.60274        -6.51411
   C        3.29034       -16.85072        -6.80961
   C        2.35888       -15.82530        -6.86184
   C        2.78243       -14.52021        -6.61690
   O        1.03865       -15.97775        -7.14742
   C        0.55212       -17.27070        -7.41744
   C        5.55247       -17.73797        -6.62026
   C        6.79637       -17.66767        -7.07488
   H        1.08434         2.38903        -5.02237
   H        6.11027        -0.01262        -3.53060
   H        4.10132        -3.35669        -4.70790
   H        5.14723        -4.78626        -4.67538
   H        5.95524        -2.06063        -5.83628
   H        5.47927        -3.47894        -6.77634
   H        6.95813        -3.51443        -5.81301
   H        8.92154        -0.80842         1.12137
   H        9.62079        -2.43089         1.33139
   H        6.91191        -1.46678         2.39772
   H        8.36210        -1.73449         3.36811
   H        7.53910        -3.10378         2.61071
   H        8.86839        -4.60596         1.15364
   H        7.45077        -6.01146        -1.17521
   H        9.76474        -9.72030         2.36186
   H        6.96847        -8.03563        -2.08699
   H        6.68171       -11.94713        -2.51167
   H        6.07679        -9.28043        -3.91187
   H        3.49981       -12.86739        -8.55706
   H        5.41622       -13.13679        -4.02777
   H        7.04538       -16.62073        -4.79969
   H        6.12587       -15.44552        -3.83119
   H        7.75134       -15.02557        -4.43489
   H        3.00466       -17.86787        -7.02921
   H        2.05754       -13.72301        -6.66321
   H       -0.51309       -17.14929        -7.60713
   H        0.69290       -17.94004        -6.56264
   H        1.02954       -17.70314        -8.30262
   H        5.12266       -18.70097        -6.37043
   H        7.24124       -16.73185        -7.36855
   H        7.40896       -18.54764        -7.17600
*
