# ORCA input file
# SCF done       -182.014288801066          0.000709822733
! CAM-B3LYP def2-SVP def2/J RIJCOSX Grid4 TightSCF
%maxcore 5000
%tddft
    Mode sTDDFT
    Ethresh 5.0
    maxcore 5000
end

%pal
  nprocs 6
  end
* xyz 0 1
   C        2.76738         0.98419        -0.32704
   N        3.26657         2.21831        -0.04222
   C        4.65137         2.60800        -0.12453
   C        5.09648         2.79679        -1.57274
   C        2.23702         3.12645         0.28326
   O        2.44386         4.29228         0.57864
   C        1.03369         2.34336         0.18272
   C        1.40766         1.01531        -0.19756
   C        0.19706         0.22020        -0.28878
   O        0.00716        -0.94349        -0.56350
   N       -0.83034         1.12298         0.04366
   C       -2.21663         0.71992         0.02562
   C       -2.92233         1.16107        -1.25365
   C       -0.35040         2.38327         0.32040
   C       -1.18050         3.47093         0.68501
   C       -0.67420         4.69870         0.98484
   C       -1.49875         5.78336         1.36198
   N       -1.01405         7.02312         1.71543
   C        0.36803         7.43955         1.69291
   C        0.84038         7.76107         0.27754
   C       -2.04054         7.91038         2.06770
   O       -1.84795         9.05702         2.43027
   C       -3.25248         7.13885         1.90871
   C       -2.88800         5.83846         1.47719
   C       -4.10009         5.07162         1.30630
   O       -4.29742         3.92122         0.95689
   N       -5.12908         5.96711         1.63331
   C       -6.51021         5.55151         1.63999
   C       -7.00888         5.25726         3.05292
   C       -4.64144         7.20167         2.00411
   C       -5.46380         8.28655         2.39063
   C       -4.96035         9.46669         2.83208
   C       -5.75355        10.56304         3.25167
   S       -7.50585        10.55533         3.14365
   C       -7.59786        12.11882         3.84236
   C       -8.92050        12.72371         4.13126
   O       -9.33830        12.92084         5.25513
   C       -6.34838        12.63005         4.14970
   C       -5.30963        11.73972         3.80330
   C       -6.18869        13.96392         4.68914
   C       -7.16627        14.93895         4.41927
   C       -7.03202        16.28246         4.89517
   N       -7.93309        17.22254         4.53593
   C       -8.95544        16.85899         3.82173
   C       -9.13774        15.52175         3.40479
   N       -8.25152        14.60879         3.67916
   C       -5.95292        16.63983         5.72142
   C       -4.99112        15.65984         6.02641
   C       -5.08210        14.34119         5.47455
   N       -4.10614        13.43923         5.73077
   C       -3.12389        13.79192         6.50475
   C       -3.08972        15.06165         7.12874
   N       -3.99658        15.96108         6.89312
   C       -5.85247        17.97786         6.27811
   C       -6.97420        18.59730         6.85840
   C       -6.86997        19.91786         7.40780
   N       -7.96927        20.53233         7.91605
   C       -9.08904        19.87696         7.90764
   C       -9.17296        18.53987         7.43883
   N       -8.14660        17.92620         6.93491
   C       -5.64792        20.58187         7.42452
   C       -4.52710        19.96717         6.87653
   C       -4.62949        18.67160         6.27022
   N       -3.55539        18.12912         5.64929
   C       -2.42935        18.77307         5.70730
   C       -2.30679        20.01264         6.38696
   N       -3.32850        20.60433         6.92525
   H        3.41848         0.17246        -0.59380
   H        5.26816         1.85044         0.36832
   H        4.73963         3.55278         0.41903
   H        4.98725         1.87008        -2.13220
   H        6.13854         3.10259        -1.60274
   H        4.49354         3.56484        -2.05128
   H       -2.72958         1.12655         0.90053
   H       -2.21263        -0.37204         0.08715
   H       -2.95666         2.24535        -1.32167
   H       -3.94095         0.78420        -1.25453
   H       -2.40170         0.76730        -2.12352
   H       -2.24781         3.30982         0.72758
   H        0.39387         4.85728         0.94534
   H        0.99508         6.66051         2.13307
   H        0.42201         8.33830         2.31383
   H        0.80713         6.87459        -0.35058
   H        1.86435         8.12186         0.30921
   H        0.21013         8.53051        -0.16256
   H       -6.55348         4.63935         1.03785
   H       -7.12635         6.31873         1.16244
   H       -6.41170         4.46573         3.49936
   H       -8.04535         4.93335         3.01791
   H       -6.93847         6.14115         3.68288
   H       -6.53661         8.15801         2.34089
   H       -3.88827         9.60467         2.89567
   H       -9.60884        12.67617         3.26207
   H       -4.27048        11.95907         3.95855
   H       -9.65773        17.63084         3.53852
   H       -9.99979        15.21820         2.82749
   H       -2.34799        13.05703         6.67222
   H       -2.31559        15.32042         7.83877
   H       -9.95840        20.38638         8.30179
   H      -10.09588        17.97900         7.50346
   H       -5.56966        21.56470         7.86019
   H       -1.58552        18.33109         5.19391
   H       -1.35489        20.52301         6.45175
*
