# ORCA input file
# SCF done       -183.833746115485          0.000689634767
! CAM-B3LYP def2-SVP def2/J RIJCOSX Grid4 TightSCF
%maxcore 5000
%tddft
    Mode sTDDFT
    Ethresh 5.0
    maxcore 5000
end

%pal
  nprocs 6
  end
* xyz 0 1
   C       -2.09257        -3.39638        -6.60910
   C       -0.86451        -3.86644        -6.17128
   C        0.39001        -3.68158        -6.93459
   O        0.52713        -3.13609        -7.98487
   S        1.73392        -4.42327        -6.00692
   C        0.66298        -4.93683        -4.65484
   O        1.08101        -5.48898        -3.68132
   C       -0.72741        -4.54916        -4.96546
   C       -1.82543        -4.80177        -4.11763
   C       -3.07593        -4.35972        -4.59594
   C       -3.18738        -3.67007        -5.80268
   C       -4.56256        -3.27138        -6.18068
   O       -4.89377        -2.63954        -7.13566
   S       -5.69597        -3.90441        -4.95051
   C       -4.38404        -4.65917        -3.96898
   O       -4.62274        -5.30833        -2.99787
   C       -1.62574        -5.48856        -2.86123
   C       -2.17022        -5.11705        -1.69024
   C       -1.92294        -5.78448        -0.45004
   S       -2.81261        -5.31206         0.96032
   C       -2.01792        -6.51302         1.91555
   C       -2.47676        -6.77640         3.26094
   O       -3.22877        -6.06982         3.88690
   C       -1.07314        -7.21613         1.17007
   C       -1.04421        -6.80963        -0.17337
   C       -0.21373        -8.26597         1.66732
   N        0.49001        -8.22887         2.84515
   C        0.76005        -7.06375         3.65665
   C        1.63071        -6.05730         2.91032
   C        1.21742        -9.42527         3.04404
   O        1.93862        -9.61297         4.00358
   C        0.89084       -10.24085         1.90013
   C        0.03076        -9.47860         1.05804
   C       -0.30033       -10.28503        -0.09818
   O       -0.96565       -10.06012        -1.08525
   N        0.36999       -11.50165         0.13507
   C        0.34092       -12.56620        -0.83857
   C        1.63109       -12.63077        -1.65270
   C        1.08069       -11.48713         1.31473
   C        1.83241       -12.59284         1.79352
   C        2.58109       -12.52415         2.92205
   C        3.36793       -13.59196         3.43284
   S        4.42930       -13.29994         4.76834
   C        4.99755       -14.92719         4.73932
   C        5.98832       -15.40335         5.66796
   O        6.41533       -16.53831         5.69911
   C        4.37527       -15.66125         3.72982
   C        3.46101       -14.90579         2.99991
   C        4.70610       -17.06712         3.48402
   C        4.46390       -18.05853         4.44062
   C        3.78913       -17.77767         5.72850
   O        3.23015       -16.77361         6.05555
   S        3.88070       -19.23358         6.75217
   C        4.68157       -20.21865         5.47235
   O        5.01766       -21.34571         5.66002
   C        4.85851       -19.38022         4.26369
   C        5.46941       -19.81678         3.07462
   C        5.70665       -18.82027         2.11775
   C        5.35088       -17.48565         2.31996
   C        5.74407       -16.57180         1.22803
   O        5.58595       -15.38895         1.16144
   S        6.53533       -17.52379        -0.06652
   C        6.35632       -19.08194         0.81995
   O        6.72183       -20.12341         0.36766
   C        5.84798       -21.20351         2.82373
   C        5.02249       -22.23180         2.94995
   H       -2.19675        -2.85897        -7.53837
   H       -0.92283        -6.30830        -2.88497
   H       -2.82494        -4.25855        -1.63566
   H       -2.10233        -7.73414         3.67489
   H       -0.38606        -7.25106        -0.89823
   H        1.28727        -7.43540         4.53964
   H       -0.17265        -6.59194         3.97471
   H        2.56701        -6.52007         2.60721
   H        1.85273        -5.21461         3.55851
   H        1.12041        -5.68909         2.02239
   H       -0.50028       -12.34275        -1.50087
   H        0.14774       -13.51850        -0.33612
   H        1.78520       -11.69159        -2.17806
   H        1.56335       -13.43013        -2.38540
   H        2.49188       -12.81365        -1.01322
   H        1.80289       -13.50529         1.21743
   H        2.61709       -11.59599         3.47745
   H        6.34030       -14.63748         6.38099
   H        2.87964       -15.30732         2.19027
   H        6.85146       -21.34877         2.44801
   H        3.99861       -22.11297         3.26293
   H        5.34361       -23.23315         2.72627
*
