# ORCA input file
# SCF done       -144.416924874522          0.000584519316
! CAM-B3LYP def2-SVP def2/J RIJCOSX Grid4 TightSCF
%maxcore 5000
%tddft
    Mode sTDDFT
    Ethresh 5.0
    maxcore 5000
end

%pal
  nprocs 6
  end
* xyz 0 1
   C        3.50983         0.88680        -3.11709
   N        3.10511         0.18827        -4.13168
   C        3.24857         1.00133        -5.22309
   C        3.79641         2.30772        -4.82502
   C        3.94523         3.19522        -5.98903
   O        4.36290         4.32904        -6.02069
   C        3.45052         2.34525        -7.09479
   C        3.03963         1.01417        -6.57214
   N        2.57636         0.23170        -7.58306
   C        2.66752         0.96693        -8.65662
   C        3.20442         2.30235        -8.42398
   C        3.96270         2.24233        -3.46872
   C        4.44047         3.21679        -2.55546
   S        4.97850         4.81137        -3.05194
   C        5.26467         5.08987        -1.34306
   N        4.96172         4.05097        -0.60097
   N        4.51443         3.03100        -1.26296
   C        5.75078         6.32488        -0.83879
   C        5.91900         6.53124         0.49229
   C        6.36482         7.76364         1.02952
   N        6.49156         8.00799         2.37634
   C        6.16722         7.10030         3.45107
   C        4.66251         7.02547         3.69683
   C        6.92369         9.31938         2.63591
   O        7.09912         9.76186         3.75331
   C        7.08600         9.90913         1.32347
   C        6.73966         8.93047         0.36186
   C        6.90900         9.51692        -0.95101
   O        6.74060         9.07307        -2.06823
   N        7.35615        10.82399        -0.69173
   C        7.59763        11.75802        -1.76562
   C        6.42373        12.71390        -1.96174
   C        7.45447        11.07800         0.65545
   C        7.84935        12.32696         1.19335
   C        7.90493        12.56927         2.52836
   C        8.25683        13.84555         3.03626
   S        8.30478        14.20109         4.75412
   C        8.74259        15.83705         4.27094
   N        8.81624        15.96634         2.96998
   N        8.55400        14.89125         2.30121
   C        8.96517        16.87643         5.20848
   C        9.27252        18.14626         4.84222
   C        9.46782        19.17674         5.79823
   N        9.37092        18.97067         7.11197
   C        9.60469        20.15973         7.68317
   C        9.87092        21.20318         6.65618
   C       10.12302        22.51139         7.30202
   O       10.37046        23.57247         6.78030
   C        9.99294        22.18689         8.73371
   C        9.67899        20.75045         8.91896
   N        9.55874        20.45539        10.23596
   C        9.77221        21.58701        10.86174
   C       10.04834        22.70771         9.98609
   C        9.78319        20.57081         5.46737
   H        3.50604         0.49026        -2.11770
   H        2.36023         0.57705        -9.61170
   H        3.35329         3.05151        -9.17616
   H        5.96965         7.10345        -1.55626
   H        5.68928         5.72097         1.16851
   H        6.66509         7.49584         4.34081
   H        6.57467         6.11093         3.22782
   H        4.27787         8.00994         3.95199
   H        4.45986         6.34924         4.52237
   H        4.13973         6.66567         2.81366
   H        7.73210        11.15330        -2.66683
   H        8.52049        12.30945        -1.56817
   H        5.52200        12.15208        -2.19275
   H        6.63419        13.38700        -2.78788
   H        6.24616        13.30438        -1.06580
   H        8.10476        13.12870         0.51618
   H        7.66534        11.79601         3.24496
   H        8.87439        16.64141         6.25930
   H        9.36649        18.39558         3.79515
   H        9.73348        21.62761        11.93646
   H       10.24762        23.71235        10.30224
   H        9.90459        20.95172         4.47247
*
