# ORCA input file
# SCF done       -127.908365845876          0.000611570685
! CAM-B3LYP def2-SVP def2/J RIJCOSX Grid4 TightSCF
%maxcore 5000
%tddft
    Mode sTDDFT
    Ethresh 5.0
    maxcore 5000
end

%pal
  nprocs 6
  end
* xyz 0 1
   C        0.11707         1.02506         1.12288
   C       -1.13960         0.42338         0.59298
   N       -2.27900         1.07020         0.49237
   S       -3.39996         0.08483        -0.14913
   N       -2.43614        -1.20986        -0.32139
   C       -1.23504        -0.91021         0.11477
   C       -0.08701        -1.87591         0.13531
   C        1.18532        -1.08108         0.11633
   C        1.27711         0.25316         0.59318
   N        2.49549         0.73471         0.49046
   S        3.46733        -0.39780        -0.15103
   N        2.33222        -1.54548        -0.32132
   C       -0.14458        -2.63786         1.36972
   C       -0.19450        -3.20583         2.43656
   C       -0.26224        -3.89184         3.59588
   C       -0.33657        -4.50402         4.64413
   C       -0.42974        -5.24833         5.81038
   N       -0.61646        -4.68506         7.05290
   C       -0.77436        -3.27705         7.31424
   C       -2.16584        -2.78320         6.92670
   C       -0.69395        -5.66251         8.05751
   O       -0.85508        -5.40044         9.23646
   C       -0.52903        -6.91160         7.35377
   C       -0.36426        -6.62057         5.96876
   C       -0.20068        -7.86792         5.25791
   O       -0.03376        -8.13221         4.08743
   N       -0.28704        -8.84668         6.27162
   C       -0.11368       -10.24498         5.96619
   C        1.29298       -10.73121         6.30825
   C       -0.47910        -8.29159         7.51689
   C       -0.62011        -9.05829         8.70400
   C       -0.80542        -8.49198         9.92216
   C       -0.96150        -9.24438        11.07663
   C       -1.10232        -9.91227        12.08427
   C       -1.26760       -10.64716        13.20382
   C       -1.40225       -11.35461        14.17589
   C       -1.60530       -12.11212        15.39867
   C       -3.04168       -11.97164        15.80813
   N       -4.00716       -12.74411        15.36778
   S       -5.41347       -12.25236        16.01478
   N       -4.80121       -11.02731        16.88790
   C       -3.50275       -10.96450        16.69694
   C       -2.60987        -9.96898        17.35526
   C       -1.22051       -10.50865        17.36923
   C       -0.75599       -11.51445        16.48082
   N        0.49637       -11.84442        16.69428
   S        1.07357       -10.95733        17.92626
   N       -0.29188       -10.12730        18.21697
   H        0.11351         0.97735         2.21808
   H        0.19122         2.07790         0.84681
   H       -0.13439        -2.56544        -0.71398
   H       -0.00811        -2.72304         6.76227
   H       -0.61524        -3.14383         8.38793
   H       -2.33937        -2.92765         5.86216
   H       -2.25895        -1.72532         7.15599
   H       -2.92430        -3.32862         7.48334
   H       -0.28155       -10.33944         4.88939
   H       -0.86914       -10.83498         6.49332
   H        2.02758       -10.16308         5.74272
   H        1.39280       -11.78203         6.05066
   H        1.50209       -10.60873         7.36895
   H       -0.58643       -10.13581         8.62099
   H       -0.84388        -7.41393        10.03051
   H       -1.34442       -13.16126        15.22486
   H       -2.95239        -9.74692        18.36736
   H       -2.63200        -9.02817        16.79225
*
