# ORCA input file
# SCF done       -129.203331060589          0.000496505065
! CAM-B3LYP def2-SVP def2/J RIJCOSX Grid4 TightSCF
%maxcore 5000
%tddft
    Mode sTDDFT
    Ethresh 5.0
    maxcore 5000
end

%pal
  nprocs 6
  end
* xyz 0 1
   C        0.54833         1.24298         3.13772
   C        1.73259         0.56158         3.09265
   C        2.77612         0.59991         4.14525
   O        3.94878         0.52762         3.90595
   O        2.33213         0.75153         5.40709
   C        1.92727        -0.08980         1.83235
   C        0.88341         0.12986         0.98406
   S       -0.34013         1.11316         1.67950
   C        3.07722        -0.92407         1.50962
   C        3.51863        -1.95841         2.34548
   N        4.53498        -2.72332         2.03631
   C        5.16111        -2.49357         0.88223
   N        4.82910        -1.53190         0.01953
   C        3.80695        -0.76411         0.33227
   C        6.25531        -3.38914         0.57281
   N        7.27948        -3.11963        -0.29459
   C        7.47327        -1.93185        -1.08909
   C        6.74461        -2.03232        -2.42586
   C        8.19381        -4.19463        -0.36946
   O        9.18904        -4.17844        -1.06251
   C        7.64721        -5.18113         0.53246
   C        6.45521        -4.65237         1.10097
   C        5.89006        -5.67460         1.96024
   O        4.89856        -5.72574         2.64889
   N        6.79912        -6.75952         1.84924
   C        6.57617        -7.95606         2.62510
   C        5.64912        -8.93357         1.90525
   C        7.83394        -6.47658         0.99446
   C        8.92620        -7.31127         0.60266
   C        9.01768        -8.65250         0.64979
   C       10.18094        -9.36651         0.16129
   N       11.27128        -8.67700        -0.18736
   C       12.30275        -9.37160        -0.62508
   C       12.27989       -10.75380        -0.73850
   C       11.09282       -11.39396        -0.35916
   N       10.05984       -10.68693         0.09587
   C       10.93541       -12.83019        -0.45843
   C        9.78658       -13.44659        -0.13017
   C        9.55972       -14.85003        -0.23025
   C        8.39812       -15.54530         0.07655
   C        7.17860       -14.89685         0.60886
   O        7.15850       -13.82338         1.14741
   O        6.03673       -15.59639         0.45644
   C        8.52304       -16.93793        -0.16792
   C        9.74407       -17.28329        -0.64862
   S       10.78118       -15.93034        -0.83507
   H        0.16235         1.86271         3.92508
   H        1.36841         0.75771         5.46949
   H        0.75521        -0.25489        -0.00811
   H        3.02449        -2.18085         3.28219
   H        3.56365         0.01609        -0.37892
   H        8.55046        -1.84962        -1.26078
   H        7.11745        -1.06547        -0.52973
   H        7.08287        -2.91182        -2.96826
   H        6.95241        -1.15027        -3.02477
   H        5.67342        -2.10190        -2.25800
   H        6.09727        -7.63694         3.55621
   H        7.53887        -8.41383         2.85925
   H        4.66609        -8.48401         1.79028
   H        5.55149        -9.84715         2.48495
   H        6.03042        -9.18489         0.91818
   H        9.74941        -6.76756         0.15486
   H        8.22712        -9.29871         0.99475
   H       13.17813        -8.79448        -0.89654
   H       13.12883       -11.30927        -1.10284
   H       11.78754       -13.38935        -0.82427
   H        8.96375       -12.85393         0.24585
   H        6.16430       -16.42038        -0.03063
   H        7.76081       -17.67114         0.03814
   H       10.09928       -18.26168        -0.90433
*
