# ORCA input file
# SCF done       -149.462782469791          0.000549725006
! CAM-B3LYP def2-SVP def2/J RIJCOSX Grid4 TightSCF
%maxcore 5000
%tddft
    Mode sTDDFT
    Ethresh 5.0
    maxcore 5000
end

%pal
  nprocs 6
  end
* xyz 0 1
   C       -1.75226        -1.24567        -0.03079
   C       -1.70343        -2.28771        -0.91644
   C       -2.84047        -2.94467        -1.43074
   N       -3.73042        -3.45192        -1.94814
   C       -0.51509        -2.73906        -1.53017
   N        0.42457        -3.14362        -2.04994
   C       -0.65030        -0.33904         0.28915
   C       -1.17150         0.81574         0.90514
   C       -0.34529         1.86168         1.27102
   C        1.01355         1.74539         1.02597
   C        1.54921         0.60364         0.43245
   C        0.70960        -0.44604         0.06062
   C        3.02303         0.48513         0.21109
   C       -2.62556         0.67101         1.08200
   O       -3.41337         1.46320         1.54665
   C       -2.93343        -0.71128         0.61401
   C       -4.10533        -1.30162         0.97287
   C       -4.40535        -2.64336         0.88954
   C       -4.66090        -3.83869         0.89082
   C       -4.89838        -5.15273         0.85876
   C       -5.09959        -6.35641         0.82763
   C       -5.27780        -7.72439         0.77674
   N       -6.51120        -8.33423         0.81663
   C       -7.77280        -7.64971         0.95209
   C       -8.01636        -7.19884         2.38978
   C       -6.40038        -9.72944         0.74721
   O       -7.35604       -10.48382         0.76392
   C       -4.97787        -9.97177         0.65496
   C       -4.31391        -8.71759         0.67516
   C       -2.88858        -8.95396         0.58995
   O       -1.93262        -8.21211         0.58503
   N       -2.78582       -10.36032         0.50429
   C       -1.49743       -11.00617         0.44451
   C       -1.06273       -11.53631         1.80897
   C       -4.01485       -10.97468         0.55088
   C       -4.20075       -12.37908         0.49269
   C       -5.43264       -12.94891         0.56269
   C       -5.64004       -14.31335         0.53822
   C       -5.85150       -15.51770         0.53087
   C       -6.08667       -16.83237         0.54266
   C       -6.28643       -18.03893         0.53658
   C       -6.57014       -19.38659         0.61828
   C       -6.16622       -20.29028        -0.31603
   C       -6.39194       -21.72122        -0.35890
   C       -7.05249       -22.47843         0.57109
   C       -7.63358       -21.97269         1.75325
   N       -8.12290       -21.62126         2.73063
   C       -7.23793       -23.87420         0.47685
   N       -7.42207       -25.00701         0.46330
   C       -5.77195       -22.21741        -1.58616
   C       -5.17498       -21.14189        -2.27241
   C       -5.38506       -19.89416        -1.51957
   O       -5.01148       -18.77726        -1.80130
   C       -4.51566       -21.33787        -3.47022
   C       -4.45267       -22.62280        -3.98739
   C       -5.03656       -23.69934        -3.32440
   C       -5.70116       -23.49409        -2.11466
   C       -4.97095       -25.08048        -3.89333
   H       -0.76082         2.74321         1.73446
   H        1.67565         2.55300         1.30201
   H        1.13260        -1.32904        -0.39153
   H        3.48183         1.46400         0.09684
   H        3.23472        -0.11540        -0.67012
   H        3.48422        -0.00594         1.06878
   H       -4.84285        -0.66066         1.44836
   H       -8.54472        -8.36125         0.64674
   H       -7.78431        -6.78861         0.27679
   H       -8.01580        -8.05762         3.05712
   H       -8.98030        -6.70330         2.46141
   H       -7.24193        -6.50424         2.70905
   H       -0.79240       -10.24024         0.10897
   H       -1.52343       -11.80990        -0.29658
   H       -1.00130       -10.71726         2.52142
   H       -0.08358       -12.00010         1.72823
   H       -1.76892       -12.27257         2.18708
   H       -3.32739       -13.00931         0.40030
   H       -6.31931       -12.32962         0.65909
   H       -7.14756       -19.69440         1.48193
   H       -4.06431       -20.50166        -3.98168
   H       -3.94132       -22.79535        -4.92308
   H       -6.14930       -24.33666        -1.61264
   H       -4.33979       -25.11375        -4.77713
   H       -5.97010       -25.41886        -4.16619
   H       -4.58066       -25.77695        -3.15321
*
