# ORCA input file
# SCF done       -197.078154694364          0.000657149771
! CAM-B3LYP def2-SVP def2/J RIJCOSX Grid4 TightSCF
%maxcore 5000
%tddft
    Mode sTDDFT
    Ethresh 5.0
    maxcore 5000
end

%pal
  nprocs 6
  end
* xyz 0 1
   C        2.44509         2.43715        -6.66846
   C        2.08418         3.49999        -7.43718
   S        2.89327         3.47117        -8.96116
   C        3.74032         1.99602        -8.55770
  Cl        4.81827         1.27045        -9.64383
   C        3.39246         1.57404        -7.30898
   C        3.74665         0.46810        -6.41439
   O        4.56837        -0.40071        -6.59376
   C        2.93281         0.70326        -5.18072
   C        2.13819         1.90938        -5.35428
   C        1.22163         2.44573        -4.48976
   C        0.51331         3.62319        -4.81128
   N       -0.06709         4.58112        -5.05884
   C        0.86501         1.90916        -3.23623
   N        0.52173         1.51422        -2.21457
   C        3.05924        -0.02280        -4.03552
   C        3.74091        -1.26209        -3.89370
   C        4.38019        -1.68208        -2.74783
   C        5.00295        -2.94240        -2.99864
   C        4.61357        -3.32586        -4.36359
   C        3.86395        -2.32206        -4.88994
   C        4.84890        -4.55991        -4.98583
   N        4.97547        -5.57467        -5.50748
   C        5.82916        -3.65032        -2.15329
   C        6.57051        -4.81991        -2.46102
   C        7.25404        -5.24254        -1.33120
   C        6.94904        -4.30445        -0.25875
   C        6.12132        -3.34173        -0.74305
   C        5.63441        -2.26164         0.00254
   N        5.25938        -1.38547         0.64325
   C        8.09562        -6.38133        -1.31776
   N        8.56759        -7.06919        -0.23065
   C        8.32942        -6.81612         1.17156
   C        9.39434        -5.89605         1.76398
   C        9.35545        -8.17503        -0.60738
   O        9.86371        -8.93330         0.19034
   C        9.36293        -8.13747        -2.05469
   C        8.58495        -7.04009        -2.46015
   C        8.63904        -6.96354        -3.91065
   O        8.18315        -6.17461        -4.70516
   N        9.43381        -8.06636        -4.28240
   C        9.65455        -8.37784        -5.67485
   C        8.71711        -9.48016        -6.16064
   C        9.87303        -8.77993        -3.19765
   C       10.69099        -9.92210        -3.28243
   C       11.13612       -10.59900        -2.18053
   C       11.96764       -11.73704        -2.22213
   C       12.47058       -12.40142        -1.11596
   C       13.28792       -13.47911        -1.54614
   C       13.24599       -13.45993        -3.02324
   C       12.46065       -12.42398        -3.41130
   C       13.86620       -14.36838        -3.88890
   N       14.36530       -15.10170        -4.61941
   C       13.97795       -14.38881        -0.77709
   C       14.80303       -15.44785        -1.25485
   C       15.21532       -16.21921        -0.19136
   C       14.68826       -15.61450         1.02452
   C       13.94655       -14.52684         0.68777
   C       13.26944       -13.69585         1.58827
   N       12.73809       -13.02219         2.35123
   C       16.05219       -17.36265        -0.21432
   C       16.33031       -18.20309        -1.24819
   C       17.54806       -19.07420        -1.13460
   O       18.19406       -19.26741        -0.13346
   C       17.77534       -19.56499        -2.49630
   C       18.71765       -20.29739        -3.15538
   S       18.29331       -20.46230        -4.84270
   C       16.84259       -19.54997        -4.63460
   C       16.70160       -19.14034        -3.34633
   C       15.73092       -18.40272        -2.55667
   C       14.44185       -18.17420        -2.95982
   C       13.99704       -18.54379        -4.24820
   N       13.61170       -18.84812        -5.28425
   C       13.41478       -17.64490        -2.15842
   N       12.53238       -17.23839        -1.54618
  Cl       20.12993       -20.99078        -2.52838
   H        1.40552         4.30001        -7.21703
   H        2.64270         0.37978        -3.11942
   H        4.47397        -1.11969        -1.83876
   H        3.38561        -2.32814        -5.84961
   H        6.60009        -5.28627        -3.42562
   H        7.34087        -4.32632         0.73917
   H        8.38302        -7.78761         1.67213
   H        7.32355        -6.41197         1.29894
   H       10.36462        -6.38430         1.71986
   H        9.16116        -5.68339         2.80357
   H        9.45814        -4.95771         1.21666
   H       10.70158        -8.65404        -5.82649
   H        9.44971        -7.45609        -6.22620
   H        8.85687       -10.39558        -5.58938
   H        8.90845        -9.68861        -7.20941
   H        7.68395        -9.15927        -6.05459
   H       10.97473       -10.25785        -4.26906
   H       10.85003       -10.25227        -1.19590
   H       12.28640       -12.13623        -0.09302
   H       12.22927       -12.16262        -4.42701
   H       15.09448       -15.57596        -2.27791
   H       14.84971       -15.99843         2.01478
   H       16.60333       -17.57119         0.69890
   H       16.20658       -19.37096        -5.47859
*
