# ORCA input file
# SCF done       -157.523589116625          0.000889207828
! CAM-B3LYP def2-SVP def2/J RIJCOSX Grid4 TightSCF
%maxcore 5000
%tddft
    Mode sTDDFT
    Ethresh 5.0
    maxcore 5000
end

%pal
  nprocs 6
  end
* xyz 0 1
   C        2.46186         2.37183         1.87258
   C        1.65719         3.33125         2.40748
   S        0.74406         2.71202         3.73224
   C        1.45219         1.12308         3.56541
  Cl        1.02691        -0.14747         4.59883
   C        2.34692         1.10642         2.53606
   C        3.22840         0.12374         1.90414
   O        3.31782        -1.05883         2.12727
   C        3.93321         0.89322         0.81863
   C        3.43120         2.26588         0.80342
   C        3.81545         3.29009        -0.01503
   C        3.24496         4.57706         0.10199
   N        2.79020         5.62650         0.18324
   C        4.79138         3.20916        -1.03021
   N        5.57974         3.20890        -1.86378
   C        4.79807         0.33825        -0.05407
   C        5.35521        -0.99601         0.08267
   C        5.40966        -1.85991        -1.01451
   F        4.90027        -1.45104        -2.18297
   C        5.94161        -3.13118        -0.90644
   F        5.94329        -3.92153        -1.98924
   C        6.48057        -3.62101         0.29503
   C        6.45936        -2.73121         1.37986
   C        5.91318        -1.46280         1.27687
   F        5.98938        -0.64170         2.32881
   F        7.00176        -3.08211         2.55190
   C        7.03637        -4.95560         0.31062
   C        7.41501        -5.66796         1.38577
   C        7.97048        -6.99916         1.30164
   C        8.59847        -7.52742         0.16396
   N        9.09336        -8.74381         0.12590
   C        9.00417        -9.47988         1.22698
   N        8.44267        -9.08119         2.36778
   C        7.93674        -7.86937         2.40284
   C        9.60265       -10.82418         1.21952
   N       10.35487       -11.18545         0.18230
   C       10.91202       -12.38002         0.24386
   C       10.76764       -13.22313         1.33831
   C        9.96502       -12.75188         2.38167
   N        9.37277       -11.56126         2.28822
   C        9.75686       -13.46452         3.62911
   C        8.93088       -12.92192         4.54338
   C        8.66193       -13.39299         5.85684
   C        8.10382       -12.61583         6.82086
   C        7.48302       -13.21244         8.04376
   O        7.65506       -14.32696         8.47204
   C        6.58481       -12.15731         8.53488
   C        5.65956       -12.01332         9.52519
   S        4.96495       -10.40928         9.48778
   C        5.93807        -9.94949         8.13780
   C        6.74185       -10.97129         7.74131
   C        7.78767       -11.19675         6.76237
   C        8.44477       -10.22047         6.06216
   C        7.96784        -8.89500         6.01896
   N        7.55792        -7.82625         5.93629
   C        9.69579       -10.39277         5.42811
   N       10.76061       -10.46310         5.00817
  Cl        5.18085       -13.15321        10.68287
   H        1.53508         4.35577         2.11645
   H        5.10708         0.87987        -0.93938
   H        7.11446        -5.40807        -0.66864
   H        7.29209        -5.28690         2.38869
   H        8.73066        -6.94212        -0.73694
   H        7.48096        -7.56988         3.33964
   H       11.51099       -12.66301        -0.61253
   H       11.25188       -14.18515         1.38423
   H       10.32822       -14.36303         3.81009
   H        8.43115       -12.01320         4.22944
   H        8.84842       -14.43234         6.09969
   H        5.84318        -8.96301         7.72915
*
