# ORCA input file
# SCF done       -182.639130159462          0.000766640226
! CAM-B3LYP def2-SVP def2/J RIJCOSX Grid4 TightSCF
%maxcore 5000
%tddft
    Mode sTDDFT
    Ethresh 5.0
    maxcore 5000
end

%pal
  nprocs 6
  end
* xyz 0 1
   C        3.63396         3.11163         2.05694
   C        2.69347         3.89482         2.65130
   S        2.54005         3.51968         4.32867
   C        3.77525         2.28661         4.23487
  Cl        4.22831         1.38125         5.58810
   C        4.25382         2.18965         2.96188
   C        5.26054         1.39459         2.25868
   O        6.07621         0.63926         2.72881
   C        5.16589         1.84813         0.82739
   C        4.19724         2.92739         0.73467
   C        3.81213         3.61791        -0.38421
   C        2.82683         4.62652        -0.32116
   N        2.03500         5.45561        -0.28494
   C        4.31583         3.42049        -1.68559
   N        4.67577         3.30304        -2.76901
   C        5.97745         1.39880        -0.16976
   C        6.72897         0.19886        -0.10888
   C        6.47252        -1.00399         0.51766
   C        7.50535        -1.90696         0.14955
   C        8.44472        -1.16860        -0.68384
   O        9.51910        -1.44057        -1.13047
   O        7.86305         0.08738        -0.85222
   C        7.25924        -3.10200         0.79678
   O        6.12481        -2.98782         1.55097
   C        5.55488        -1.72808         1.38609
   O        4.50478        -1.44173         1.88064
   C        8.00657        -4.29524         0.72515
   N        8.07477        -5.28793         1.67028
   C        7.44274        -5.27196         2.96989
   C        8.13981        -4.30723         3.92430
   C        8.98625        -6.28940         1.29914
   O        9.24459        -7.25511         1.98961
   C        9.45565        -5.88543        -0.01235
   C        8.83312        -4.66241        -0.33645
   C        9.16624        -4.33134        -1.71070
   O        8.76079        -3.48178        -2.46434
   N       10.07453        -5.34968        -2.08955
   C       10.73069        -5.30888        -3.37485
   C       12.14866        -4.75655        -3.25882
   C       10.24432        -6.27859        -1.10396
   C       11.07162        -7.42639        -1.24250
   C       11.20890        -8.32871        -0.24189
   C       12.00715        -9.52536        -0.25486
   C       12.12407       -10.25137         0.93913
   C       12.90227       -11.38108         1.01107
   F       12.96651       -12.03783         2.18556
   C       13.59274       -11.89322        -0.09651
   C       13.42789       -11.21000        -1.30409
   C       12.68317       -10.05522        -1.36715
   F       12.59706        -9.45028        -2.56549
   C       14.37682       -13.10509        -0.05743
   C       15.15585       -13.60621         0.92417
   C       15.57251       -15.05069         0.83501
   O       15.46780       -15.75985        -0.13423
   C       16.06459       -15.36902         2.17634
   C       16.50433       -16.47317         2.84600
   S       16.93417       -16.06023         4.48834
   C       16.52743       -14.40093         4.24864
   C       16.07983       -14.18276         2.98311
   C       15.64247       -13.05654         2.18268
   C       15.85015       -11.74456         2.50465
   C       16.39130       -11.37131         3.75431
   N       16.82571       -11.05552         4.76729
   C       15.62807       -10.66024         1.63470
   N       15.48706        -9.75257         0.94667
  Cl       16.65118       -18.05672         2.26590
   H        2.08159         4.66578         2.22651
   H        6.08889         1.96317        -1.08721
   H        7.51514        -6.29345         3.35259
   H        6.39197        -4.99958         2.85318
   H        9.18878        -4.57395         4.03175
   H        7.66573        -4.35517         4.90029
   H        8.07318        -3.28481         3.55966
   H       10.12792        -4.64250        -3.99781
   H       10.73212        -6.30672        -3.82114
   H       12.12056        -3.75760        -2.83081
   H       12.60097        -4.70042        -4.24475
   H       12.76577        -5.39057        -2.62615
   H       11.58927        -7.54304        -2.18065
   H       10.68048        -8.15056         0.68624
   H       11.60760        -9.91035         1.82303
   H       13.92028       -11.56558        -2.19579
   H       14.29137       -13.73802        -0.93653
   H       16.63599       -13.70837         5.05960
*
