# ORCA input file
# SCF done       -193.713523224694          0.000563593567
! CAM-B3LYP def2-SVP def2/J RIJCOSX Grid4 TightSCF
%maxcore 5000
%tddft
    Mode sTDDFT
    Ethresh 5.0
    maxcore 5000
end

%pal
  nprocs 6
  end
* xyz 0 1
   C        2.87288         7.89765         1.09590
   C        1.88555         8.83313         1.19437
   C        1.92587        10.10163         0.57746
   N        1.89541        11.14419         0.10007
   C        0.73717         8.66893         1.99390
   N       -0.17128         8.57045         2.69080
   C        4.20309         8.12183         0.54805
   C        5.09054         7.14472         1.08957
   C        6.42247         7.14177         0.78504
   C        6.92968         8.12067        -0.09788
   C        6.04316         9.08765        -0.65619
   C        4.67152         9.07435        -0.31629
   C        6.56293        10.05163        -1.54420
   C        7.89279        10.06346        -1.86516
   C        8.76492         9.11237        -1.31396
   C        8.29392         8.16259        -0.44903
   C        4.33699         6.20734         1.93811
   O        4.75249         5.29175         2.60471
   C        2.89816         6.58190         1.72743
   C        1.93962         5.65448         1.87420
   C        0.60382         5.71479         1.24073
   C       -0.33934         4.52899         1.21883
   O       -0.69555         3.71167         2.00361
   C        0.58610         5.66226        -0.29472
   O        1.32961         6.04441        -1.13523
   C       -0.61850         4.71273        -0.29421
   C       -1.90705         5.38965        -0.56510
   N       -3.08850         4.73336        -0.75208
   C       -3.29099         3.30427        -0.76421
   C       -3.05361         2.71158        -2.15139
   C       -4.15899         5.64542        -0.96452
   O       -5.30197         5.29379        -1.15916
   C       -3.53291         6.94123        -0.87626
   C       -2.14513         6.74199        -0.61961
   C       -1.53065         8.04252        -0.53438
   O       -0.37693         8.37061        -0.32770
   N       -2.58195         8.95185        -0.72844
   C       -2.29989        10.36817        -0.71578
   C       -2.16578        10.93526        -2.12657
   C       -3.78138         8.30439        -0.94502
   C       -5.08431         8.82194        -1.20513
   C       -5.50817        10.09658        -1.32982
   C       -6.86605        10.48977        -1.62808
   C       -7.17510        11.85043        -1.67112
   C       -8.45159        12.28875        -1.97963
   N       -8.65627        13.71249        -2.05788
   O       -7.85636        14.42110        -1.48435
   O       -9.60127        14.12145        -2.69978
   C       -9.49234        11.38585        -2.25897
   C       -9.16929        10.02298        -2.20787
   C       -7.90245         9.58378        -1.90438
   C      -10.85147        11.80108        -2.52642
   C      -11.64706        11.17845        -3.41801
   C      -12.99424        11.54309        -3.72240
   C      -13.93142        12.05481        -2.88083
   C      -15.28095        12.44330        -3.26757
   C      -15.70663        12.73377        -4.53572
   C      -17.02090        13.13882        -4.85259
   N      -18.07394        13.46440        -5.17327
   C      -14.89988        12.69716        -5.69364
   N      -14.31016        12.69942        -6.67872
   C      -16.08081        12.54769        -2.05556
   C      -15.23455        12.31812        -0.93364
   C      -13.85829        12.06183        -1.39086
   O      -12.89507        11.84995        -0.68687
   C      -15.70916        12.35034         0.34642
   C      -17.07865        12.61710         0.56666
   C      -17.93350        12.84222        -0.55125
   C      -17.41348        12.80338        -1.86482
   C      -19.29978        13.10219        -0.31984
   C      -19.79923        13.13940         0.95343
   C      -18.95667        12.91826         2.05333
   C      -17.62545        12.66354         1.86425
   H        7.08105         6.39886         1.21003
   H        4.01533         9.80771        -0.75860
   H        5.88816        10.78310        -1.96381
   H        8.28107        10.80616        -2.54590
   H        9.81136         9.13605        -1.57889
   H        8.96050         7.42773        -0.02187
   H        2.21528         4.71786         2.34400
   H        0.03675         6.60006         1.55504
   H       -0.50300         3.80523        -0.89029
   H       -4.33214         3.13876        -0.47441
   H       -2.63819         2.84272        -0.01941
   H       -3.74583         3.15223        -2.86444
   H       -3.21834         1.63828        -2.12437
   H       -2.03869         2.89982        -2.49565
   H       -1.34363        10.47882        -0.19508
   H       -3.06702        10.88772        -0.13782
   H       -1.32794        10.46168        -2.63213
   H       -1.97703        12.00375        -2.07502
   H       -3.06597        10.76085        -2.71218
   H       -5.79939         8.01709        -1.31567
   H       -4.82408        10.92240        -1.21352
   H       -6.41476        12.59314        -1.47525
   H       -9.95340         9.30373        -2.38676
   H       -7.71046         8.52293        -1.88275
   H      -11.21362        12.67484        -2.00698
   H      -11.22870        10.40094        -4.04621
   H      -13.29823        11.33087        -4.74111
   H      -15.04648        12.17451         1.18083
   H      -18.08684        12.96991        -2.69057
   H      -19.94389        13.27336        -1.16981
   H      -20.84692        13.33977         1.12041
   H      -19.36798        12.95057         3.05111
   H      -16.97200        12.49277         2.70725
*
