# ORCA input file
# SCF done       -192.470561387381          0.001512765106
! CAM-B3LYP def2-SVP def2/J RIJCOSX Grid4 TightSCF
%maxcore 5000
%tddft
    Mode sTDDFT
    Ethresh 5.0
    maxcore 5000
end

%pal
  nprocs 6
  end
* xyz 0 1
   C        1.99772         5.54456        -3.13940
   C        1.60305         5.21382        -1.87333
   C        1.85487         3.95660        -1.28577
   N        2.06377         2.94978        -0.77695
   C        0.84157         6.07559        -1.05699
   N        0.17934         6.73526        -0.39136
   C        2.59952         4.65606        -4.12343
   C        2.45551         5.24149        -5.41662
   C        2.95498         4.63801        -6.53475
   C        3.66832         3.42712        -6.39702
   C        3.84118         2.85128        -5.10579
   C        3.26708         3.47014        -3.97286
   C        4.61180         1.67688        -4.98427
   C        5.19579         1.10518        -6.08095
   C        5.00506         1.65940        -7.35551
   C        4.24641         2.78724        -7.50988
   C        1.78204         6.54524        -5.29282
   O        1.39305         7.28523        -6.16160
   C        1.74370         6.80614        -3.81758
   C        1.70240         8.07514        -3.36976
   C        1.99389         8.57283        -2.04683
   C        1.29986         9.62178        -1.50580
   S        1.76286         9.97755         0.10158
   C        2.93624         8.74400         0.07305
   C        2.97080         8.07373        -1.11994
   C        3.96626         7.01621        -1.32256
   O        4.42049         6.33060        -0.44247
   O        4.36699         6.90503        -2.62225
   C        5.26537         5.92094        -2.91327
   C        5.66646         5.72852        -4.17692
   C        6.55947         4.73908        -4.68848
   N        7.37981         3.86893        -4.00914
   C        7.59963         3.73812        -2.58754
   C        6.61050         2.78146        -1.92823
   C        8.14263         3.07818        -4.89580
   O        8.94329         2.24453        -4.51993
   C        7.74980         3.51834        -6.21125
   C        6.76751         4.52830        -6.04491
   C        6.38834         5.00548        -7.35549
   O        5.58911         5.84292        -7.71781
   N        7.19925         4.26466        -8.23870
   C        7.19736         4.52008        -9.65981
   C        6.55234         3.40170       -10.47378
   C        8.02115         3.38643        -7.56940
   C        8.99997         2.58313        -8.20845
   C        9.83451         1.76169        -7.52540
   C       10.85954         1.02966        -8.18169
   S       12.08520         0.13155        -7.30220
   C       12.76203        -0.23716        -8.88155
   N       12.06440         0.28188        -9.85618
   N       11.03302         0.97243        -9.47761
   C       13.97122        -0.97140        -9.03398
   C       14.48411        -1.26912       -10.24929
   C       15.72242        -1.93105       -10.48637
   C       16.86715        -1.82463        -9.75636
   C       18.11210        -2.51920       -10.04973
   C       18.22934        -3.70012       -10.73198
   C       19.45534        -4.36160       -10.95458
   N       20.42287        -4.94142       -11.16785
   C       17.14148        -4.43180       -11.25476
   N       16.30318        -5.08760       -11.68426
   C       19.19476        -1.78790        -9.40790
   C       18.62882        -0.73596        -8.63283
   C       17.16061        -0.76368        -8.74875
   O       16.38243        -0.03870        -8.16948
   C       19.40401         0.12568        -7.91117
   C       20.80821        -0.02557        -7.93742
   C       21.38314        -1.06964        -8.71899
   C       20.55451        -1.94934        -9.45243
   C       22.78638        -1.20391        -8.74439
   C       23.58431        -0.35126        -8.03120
   C       23.01701         0.67415        -7.25975
   C       21.65856         0.83310        -7.21327
   H        2.84367         5.09684        -7.50479
   H        3.39308         3.00871        -3.00537
   H        4.73488         1.23920        -4.00485
   H        5.80105         0.21790        -5.97404
   H        5.45959         1.18438        -8.21237
   H        4.08053         3.21939        -8.48480
   H        1.44051         8.82647        -4.10723
   H        0.49862        10.16666        -1.96441
   H        3.57046         8.56581         0.91903
   H        5.56435         5.33486        -2.05567
   H        5.25449         6.37019        -4.94526
   H        7.57447         4.72660        -2.12457
   H        8.60867         3.32704        -2.47971
   H        5.58409         3.10859        -2.07219
   H        6.81100         2.72543        -0.86187
   H        6.72405         1.78831        -2.35548
   H        8.22538         4.68717        -9.99649
   H        6.63024         5.44590        -9.79324
   H        7.04475         2.44930       -10.29447
   H        6.62818         3.63739       -11.53189
   H        5.50138         3.30219       -10.21882
   H        9.11550         2.65483        -9.27972
   H        9.76539         1.66741        -6.45082
   H       14.45771        -1.28746        -8.12522
   H       13.89183        -1.02338       -11.12145
   H       15.76049        -2.51710       -11.39815
   H       18.95094         0.91400        -7.32847
   H       21.01751        -2.72559       -10.04111
   H       23.21852        -1.99608        -9.33797
   H       24.65797        -0.46240        -8.05737
   H       23.66175         1.33773        -6.70317
   H       21.21573         1.62092        -6.62158
*
