# ORCA input file
# SCF done       -239.936926256652          0.000916754011
! CAM-B3LYP def2-SVP def2/J RIJCOSX Grid4 TightSCF
%maxcore 5000
%tddft
    Mode sTDDFT
    Ethresh 5.0
    maxcore 5000
end

%pal
  nprocs 6
  end
* xyz 0 1
   C       -0.29105        -8.49803         1.79444
   C        0.32552        -8.05479         2.95126
   C       -0.33658        -8.25121         4.16261
   C        0.20525        -7.68080         5.33740
   N        0.61493        -7.14491         6.26383
   C       -1.57259        -8.92700         4.22083
   C       -2.19683        -9.12232         5.47712
   N       -2.70023        -9.28031         6.49308
   C       -2.18955        -9.36820         3.04953
   C       -1.55298        -9.12425         1.84947
   C       -2.07159        -9.33149         0.47385
   O       -3.07198        -9.89612         0.12959
   C       -1.10945        -8.56327        -0.38347
   C        0.10156        -8.34496         0.39933
   C        1.36123        -8.14217        -0.07775
   C        2.48360        -7.94904         0.75924
   N        3.40291        -7.75674         1.41597
   C        1.66849        -8.11574        -1.45596
   N        1.94510        -8.08862        -2.56829
   C       -1.51323        -7.96128        -1.51519
   C       -0.80380        -6.87790        -2.17424
   C       -0.26792        -5.79088        -1.47500
   C       -0.33274        -5.45068        -0.03365
   O       -0.96578        -5.96964         0.85403
   N        0.51726        -4.35958         0.14654
   C        1.02241        -3.87485        -1.07279
   O        1.73790        -2.92709        -1.21507
   C        0.49124        -4.80351        -2.10885
   C        0.71532        -4.80262        -3.47274
   C        0.14086        -5.85060        -4.18449
   C       -0.58562        -6.85932        -3.56079
   C       -1.03593        -7.93950        -4.46503
   O       -1.63354        -8.92846        -4.16421
   S       -0.53550        -7.54281        -6.13668
   C        0.28140        -6.01631        -5.65112
   O        0.82930        -5.28503        -6.41326
   C        0.81142        -3.91614         1.42933
   C        1.72145        -2.98094         1.73863
   C        2.06194        -2.62565         3.08693
   C        3.06899        -1.65077         3.29803
   C        3.52593        -1.29125         4.61346
   N        4.56107        -0.44099         4.76712
   C        5.06906         0.12619         3.70859
   C        4.55108        -0.15992         2.39575
   N        3.60938        -1.04768         2.22525
   C        5.08914         0.51149         1.26766
   N        5.54938         1.07454         0.38360
   C        6.15360         1.02807         3.86494
   N        7.02281         1.76580         3.96693
   C        2.93719        -1.84041         5.75883
   C        1.90741        -2.76166         5.56422
   C        1.48635        -3.17887         4.24604
   N        0.51118        -4.09881         4.32715
   S        0.16673        -4.37050         5.86502
   N        1.19885        -3.36153         6.53152
   C        3.39846        -1.51706         7.10112
   C        3.73410        -2.53053         7.99783
   C        3.79104        -3.99723         7.78667
   O        3.68624        -4.64065         6.77879
   N        4.05412        -4.54270         9.05137
   C        4.34078        -3.55779        10.00916
   O        4.68497        -3.75594        11.14052
   C        4.13843        -2.26422         9.30635
   C        4.30078        -0.97210         9.77362
   C        3.99932         0.04528         8.87475
   C        3.52946        -0.20831         7.58646
   C        3.12053         1.00415         6.84556
   O        2.53284         1.07409         5.80703
   S        3.57677         2.45101         7.80179
   C        4.12773         1.48168         9.21107
   O        4.52368         1.95564        10.22925
   C        4.24208        -5.91066         9.22073
   C        4.04737        -6.55444        10.37905
   C        3.41895        -5.97924        11.53079
   C        3.58950        -6.32926        12.82746
   C        2.58784        -5.92065        13.84929
   O        1.69137        -5.12496        13.71336
   C        2.89246        -6.75260        15.03682
   C        2.19362        -6.84225        16.22227
   C        2.65182        -7.73584        17.19136
   C        3.79557        -8.52033        16.94579
   C        4.50208        -8.41473        15.74658
   C        4.04820        -7.52152        14.79042
   C        4.57902        -7.16997        13.47241
   C        5.84709        -7.42249        13.03040
   C        6.41853        -6.84485        11.87437
   N        6.95839        -6.37812        10.97679
   C        6.77845        -8.21877        13.73401
   N        7.55659        -8.87483        14.26227
   C        4.23310        -9.43851        17.93306
   N        4.59027       -10.18552        18.72338
   C        1.96053        -7.86091        18.42088
   N        1.38682        -7.94956        19.40770
   H        1.26700        -7.52825         2.93657
   H       -3.15000        -9.86006         3.07973
   H       -2.45524        -8.27813        -1.94712
   H        1.30854        -4.04535        -3.96028
   H        0.25043        -4.44063         2.19246
   H        2.26943        -2.45423         0.97153
   H        4.63758        -0.75607        10.77514
   H        4.60628        -6.41112         8.33452
   H        4.35193        -7.58985        10.43997
   H        2.62817        -5.25828        11.34981
   H        1.31505        -6.23902        16.39387
   H        5.37121        -9.03413        15.59024
*
