# ORCA input file
# SCF done       -241.616977817700          0.000610879159
! CAM-B3LYP def2-SVP def2/J RIJCOSX Grid4 TightSCF
%maxcore 5000
%tddft
    Mode sTDDFT
    Ethresh 5.0
    maxcore 5000
end

%pal
  nprocs 6
  end
* xyz 0 1
   C       -6.20011         0.90180         1.78775
   C       -5.62475         1.59194         0.73235
   C       -5.77456         1.15027        -0.57449
   C       -6.51014         0.01161        -0.86382
   C       -7.08755        -0.69219         0.18210
   C       -6.92713        -0.24671         1.51418
   C       -7.59208        -1.18309         2.40554
   C       -7.77176        -1.03463         3.75289
   C       -7.33070         0.08623         4.48861
   N       -7.00075         0.96873         5.14452
   C       -8.43573        -1.94585         4.60376
   N       -8.93771        -2.62816         5.37914
   C       -8.03999        -2.30116         1.58088
   C       -7.90357        -1.90037         0.18458
   C       -8.48863        -2.45544        -0.92007
   C       -9.45191        -3.48640        -0.95878
   N      -10.25632        -4.28561        -1.13741
   C       -8.24556        -2.02168        -2.24060
   N       -8.07485        -1.75128        -3.34377
   C       -8.36969        -3.52090         2.08181
   C       -8.51703        -4.74914         1.31102
   C       -9.70266        -5.49499         1.45070
   C      -10.73267        -4.81613         2.23820
   O      -10.54194        -3.66652         2.61043
   C      -11.97507        -5.52638         2.57270
   C      -12.06203        -6.80803         3.03373
   S      -13.66984        -7.24677         3.43549
   C      -14.24507        -5.69138         2.98824
   C      -13.24666        -4.87106         2.55897
   C      -13.44336        -3.50545         2.00384
   O      -12.88987        -3.15932         0.98409
   C      -14.38412        -2.63364         2.74437
   C      -15.02487        -1.61071         2.04606
   C      -15.91301        -0.77449         2.69356
   C      -16.15461        -0.93889         4.04865
   C      -15.50194        -1.93719         4.75465
   C      -14.62218        -2.78608         4.10876
   C       -9.86257        -6.67100         0.72282
   C       -8.86924        -7.10337        -0.12851
   C       -7.68587        -6.36899        -0.27984
   C       -7.52251        -5.19620         0.46502
   C       -6.67613        -6.71673        -1.24764
   S       -5.85694        -5.44438        -2.07374
   C       -4.95116        -6.52523        -3.07169
   C       -5.22998        -7.85584        -2.72690
   C       -6.22603        -7.95945        -1.69848
   C       -6.59515        -9.23117        -1.21594
   C       -6.01982       -10.34629        -1.75028
   S       -6.47931       -11.96279        -1.13160
   C       -5.00060       -10.25607        -2.73891
   O       -4.38694       -11.36525        -3.20686
   C       -4.61961        -9.02650        -3.21229
   C       -4.11050        -5.92250        -4.04600
   C       -3.51931        -6.50893        -5.10365
   C       -2.75285        -5.77357        -6.09085
   C       -1.77967        -4.78876        -5.80396
   C       -1.21754        -4.59664        -4.44400
   O       -1.67063        -5.07396        -3.42496
   C        0.06206        -3.83191        -4.36689
   C        1.19395        -4.17576        -5.04306
   S        2.55442        -3.22660        -4.58891
   C        1.60591        -2.35842        -3.46280
   C        0.30392        -2.77132        -3.43494
   C       -0.67980        -2.16619        -2.50778
   O       -0.32780        -1.67774        -1.45377
   C       -2.09911        -2.19051        -2.93285
   C       -2.47527        -2.03092        -4.26469
   C       -3.81208        -2.07147        -4.61690
   C       -4.78219        -2.26862        -3.64648
   C       -4.41310        -2.40036        -2.31658
   C       -3.07974        -2.35633        -1.95831
   C       -1.23986        -4.06087        -6.87103
   C       -1.60961        -4.28925        -8.17477
   C       -2.50989        -5.31945        -8.47359
   C       -3.02707        -6.07078        -7.42719
   C       -2.89062        -5.64204        -9.83397
   C       -3.12937        -4.77902       -10.84604
   C       -3.20166        -5.15681       -12.26281
   C       -3.47916        -6.39418       -12.76751
   C       -3.80281        -7.53055       -11.99277
   N       -4.08339        -8.48675       -11.42385
   C       -3.52781        -6.69189       -14.14779
   N       -3.57908        -6.99737       -15.25215
   C       -2.93945        -3.94786       -13.02717
   C       -2.90555        -2.84279       -12.14441
   C       -2.66056        -1.56522       -12.62324
   C       -2.45280        -1.39664       -13.98319
   C       -2.49309        -2.47919       -14.85215
   C       -2.73586        -3.76199       -14.38655
   C       -3.19007        -3.31425       -10.79969
   C       -3.64287        -2.55309        -9.76139
   C       -3.70688        -1.14252        -9.79216
   N       -3.75425         0.00277        -9.74991
   C       -4.17916        -3.06760        -8.56059
   N       -4.69061        -3.40757        -7.59156
   H       -6.07133         1.25317         2.79832
   H       -5.04906         2.48241         0.93344
   H       -5.31124         1.69729        -1.38127
   H       -6.61245        -0.31361        -1.88553
   H       -8.31183        -3.65637         3.15467
   H      -11.26316        -7.50181         3.20755
   H      -15.29410        -5.47671         3.04266
   H      -14.81597        -1.49653         0.99270
   H      -16.41477         0.00906         2.14546
   H      -16.84610        -0.28344         4.55724
   H      -15.67864        -2.05221         5.81380
   H      -14.09910        -3.54751         4.66769
   H      -10.79232        -7.21474         0.77925
   H       -9.03586        -7.97345        -0.74296
   H       -6.60603        -4.63083         0.36720
   H       -7.31115        -9.32649        -0.41600
   H       -6.85147       -12.45688        -2.31822
   H       -4.63667       -12.12522        -2.65549
   H       -3.81034        -8.98427        -3.91919
   H       -3.99828        -4.85294        -3.92843
   H       -3.72013        -7.54147        -5.34719
   H        1.31282        -4.95982        -5.76527
   H        2.03919        -1.57297        -2.87568
   H       -1.72529        -1.84046        -5.01894
   H       -4.10226        -1.96327        -5.65100
   H       -5.82401        -2.30899        -3.92794
   H       -5.16897        -2.54046        -1.55770
   H       -2.77376        -2.46370        -0.92861
   H       -0.51683        -3.28482        -6.67268
   H       -1.16705        -3.70821        -8.97095
   H       -3.73347        -6.85800        -7.64866
   H       -2.94122        -6.70184       -10.04738
   H       -2.62034        -0.71824       -11.95768
   H       -2.25617        -0.40855       -14.36985
   H       -2.33023        -2.32256       -15.90732
   H       -2.75779        -4.59182       -15.07368
*
