# ORCA input file
# SCF done       -196.497441703929          0.000800116658
! CAM-B3LYP def2-SVP def2/J RIJCOSX Grid4 TightSCF
%maxcore 5000
%tddft
    Mode sTDDFT
    Ethresh 5.0
    maxcore 5000
end

%pal
  nprocs 6
  end
* xyz 0 1
   C       -5.04886        -0.57851        -5.82348
   C       -5.05176        -1.46138        -6.89345
   C       -5.34114        -2.80616        -6.71252
   C       -5.64747        -3.30548        -5.45549
   C       -5.64971        -2.43256        -4.38065
   C       -5.34243        -1.06484        -4.55938
   C       -5.38925        -0.39552        -3.26416
   C       -5.20890         0.94517        -3.05010
   C       -4.99197         1.88829        -4.07747
   N       -4.81349         2.70964        -4.85909
   C       -5.23075         1.58992        -1.79511
   N       -5.21702         2.18521        -0.81344
   C       -5.62111        -1.42982        -2.26539
   C       -5.97488        -2.64696        -2.97962
   C       -6.75100        -3.66910        -2.49565
   C       -7.34685        -3.66699        -1.21812
   N       -7.88764        -3.68256        -0.20511
   C       -7.12443        -4.79919        -3.25000
   N       -7.43796        -5.75492        -3.80340
   C       -5.45136        -1.27015        -0.91353
   C       -5.21569        -2.26280         0.05163
   S       -4.56519        -3.87026        -0.25290
   C       -4.54920        -4.34150         1.42749
   C       -5.00968        -3.26811         2.20530
   C       -5.34540        -2.12790         1.42815
   O       -5.77287        -1.12135         2.20078
   C       -5.71071        -1.59370         3.47420
   N       -6.09914        -0.74336         4.53796
   O       -6.01175        -1.22085         5.65549
   O       -6.47719         0.37379         4.27194
   C       -5.25404        -2.88522         3.54544
   C       -4.13553        -5.63305         1.78233
   C       -4.25392        -6.15981         3.03789
   C       -3.86636        -7.45969         3.41275
   N       -4.14740        -7.94301         4.67636
   C       -3.67955        -9.21136         4.77137
   C       -3.57521       -10.30902         5.61052
   C       -2.88684       -11.29396         4.88028
   N       -2.58193       -10.80643         3.62536
   C       -3.06147        -9.53894         3.52803
   C       -3.18262        -8.45090         2.68037
   C       -2.55159       -12.58119         5.34957
   C       -1.82105       -13.52186         4.68600
   C       -1.52863       -14.78349         5.24407
   S       -0.51303       -15.95698         4.44236
   C       -0.62244       -17.14570         5.72334
   C       -1.43931       -16.63433         6.74266
   C       -1.92373       -15.33209         6.45889
   O       -2.68180       -14.86772         7.46880
   C       -2.67999       -15.85584         8.40184
   N       -3.41698       -15.62905         9.59165
   O       -3.43414       -16.53441        10.40016
   O       -3.97573       -14.55990         9.70794
   C       -1.94495       -16.95087         8.02803
   C        0.11720       -18.33107         5.65167
   C        0.01527       -19.36703         6.54023
   C        0.81578       -20.52655         6.53919
   C        2.09161       -20.68086         6.05631
   C        2.69401       -21.96742         5.72760
   C        2.25343       -23.21291         6.09008
   C        1.12724       -23.49306         6.89272
   N        0.23054       -23.80737         7.53773
   C        2.90383       -24.41485         5.73622
   N        3.37896       -25.42997         5.48916
   C        3.87524       -21.68724         4.92079
   C        4.07902       -20.28963         4.88115
   C        5.12714       -19.74913         4.15453
   C        5.97505       -20.61023         3.47435
   C        5.78437       -21.98367         3.52236
   C        4.73543       -22.53612         4.24235
   C        3.06556       -19.65331         5.70998
   C        3.18164       -18.40510         6.26504
   C        4.20477       -17.49101         5.93904
   N        4.99154       -16.68969         5.70073
   C        2.34736       -17.88433         7.27491
   N        1.73994       -17.40163         8.12141
   H       -4.81922         0.46158        -5.98506
   H       -4.82191        -1.09267        -7.88137
   H       -5.32914        -3.47466        -7.55970
   H       -5.86603        -4.35281        -5.32381
   H       -5.43401        -0.26406        -0.51299
   H       -5.12317        -3.43521         4.45375
   H       -3.73883        -6.24370         0.98468
   H       -4.71091        -5.55735         3.80948
   H       -4.64691        -7.43330         5.38522
   H       -3.92870       -10.42145         6.61522
   H       -2.10062       -11.31993         2.90840
   H       -2.82955        -8.35149         1.67451
   H       -2.91217       -12.81379         6.34091
   H       -1.41562       -13.33252         3.70235
   H       -1.79565       -17.82669         8.62395
   H        0.80095       -18.41466         4.81602
   H       -0.79417       -19.35010         7.25450
   H        0.33814       -21.40867         6.94465
   H        5.28142       -18.68363         4.10327
   H        6.79324       -20.20326         2.90028
   H        6.45888       -22.63570         2.98895
   H        4.60043       -23.60473         4.26230
*
