# ORCA input file
# SCF done       -214.646012184212          0.000682012933
! CAM-B3LYP def2-SVP def2/J RIJCOSX Grid4 TightSCF
%maxcore 5000
%tddft
    Mode sTDDFT
    Ethresh 5.0
    maxcore 5000
end

%pal
  nprocs 6
  end
* xyz 0 1
   C        2.37152        -2.28732        -1.31037
   C        1.74684        -2.37961        -0.09661
   C        2.32803        -1.95973         1.11825
   N        2.76900        -1.65354         2.13228
   C        0.41638        -2.81911         0.07128
   N       -0.67948        -3.09870         0.26477
   C        3.62317        -1.58008        -1.56843
   C        3.70162        -1.27908        -2.94111
   C        4.76370        -0.57199        -3.46739
   C        5.77654        -0.16536        -2.60776
   C        5.71209        -0.47337        -1.24321
   C        4.63603        -1.17705        -0.71406
  Cl        6.97941         0.02217        -0.19701
  Cl        7.11379         0.71688        -3.22473
   C        2.52570        -1.84203        -3.64021
   O        2.23321        -1.73677        -4.80728
   C        1.79950        -2.62475        -2.60180
   C        0.85780        -3.52548        -2.97165
   C        0.29442        -4.60480        -2.20485
   C       -1.02956        -4.99748        -2.45274
   C       -1.57943        -6.01219        -1.71117
   C       -0.81080        -6.69676        -0.75277
   C        0.51650        -6.35047        -0.53830
   C        1.05353        -5.30055        -1.25286
   C       -1.63959        -7.71303        -0.13938
   C       -2.92066        -7.64829        -0.71583
   C       -2.98313        -6.56391        -1.76389
   C       -4.02036        -5.48618        -1.39633
   C       -3.77380        -4.86852        -0.02524
   C       -3.30648        -7.15038        -3.15150
   C       -2.26344        -8.15559        -3.62278
   C       -3.91869        -8.49455        -0.30051
   C       -3.64306        -9.43849         0.69485
   C       -2.37347        -9.48945         1.27029
   C       -1.36618        -8.63628         0.85781
   C       -4.71339       -10.32610         1.17074
   S       -4.85080       -10.28403         2.93849
   C       -5.64011       -11.81519         3.29249
   C       -5.46656       -12.48961         4.46010
   S       -6.42235       -13.91811         4.52920
   C       -7.04591       -13.61706         2.95444
   C       -6.55342       -12.46708         2.42239
   S       -7.02399       -11.85313         0.84736
   C       -5.54000       -10.98943         0.33954
   C       -5.35663       -11.07677        -1.09393
   C       -4.16931       -11.20514        -1.70420
   C       -3.94832       -11.23231        -3.13367
   C       -2.71574       -11.69903        -3.61475
   C       -2.45186       -11.67520        -4.96307
   C       -3.43062       -11.21430        -5.86306
   C       -4.65564       -10.75324        -5.40026
   C       -4.90137       -10.75832        -4.04325
   C       -2.92699       -11.35474        -7.20957
   C       -1.63778       -11.91567        -7.14579
   C       -1.20741       -12.10537        -5.70614
   C       -0.02357       -11.13880        -5.46299
   C        0.47638       -11.04036        -4.02800
   C       -0.82577       -13.56182        -5.40249
   C       -1.94154       -14.53958        -5.75365
   C       -0.94334       -12.18713        -8.29541
   C       -1.50861       -11.85977        -9.54294
   C       -2.80166       -11.31799        -9.59099
   C       -3.51336       -11.07189        -8.43626
   C       -0.75017       -12.15780       -10.72420
   C       -0.74342       -11.50103       -11.91673
   C       -0.01589       -11.93163       -13.10134
   C        0.49781       -13.17902       -13.33452
   C        1.17090       -13.54791       -14.51923
   N        1.73040       -13.90968       -15.45350
   C        0.40939       -14.27670       -12.45088
   N        0.36325       -15.22181       -11.80028
   C       -0.00217       -10.81892       -14.04461
   C       -0.73888        -9.75439       -13.49933
   C       -1.26214       -10.12977       -12.16667
   O       -1.91148        -9.41926       -11.43388
   C       -0.89924        -8.55958       -14.17110
   C       -0.31257        -8.42373       -15.42268
   C        0.42440        -9.47877       -15.97398
   C        0.58526       -10.67954       -15.29229
  Cl        1.14971        -9.29518       -17.51943
  Cl       -0.49228        -6.95550       -16.29412
   H        4.80323        -0.34116        -4.52020
   H        4.61784        -1.40042         0.34037
   H        0.52814        -3.44722        -4.00353
   H       -1.60987        -4.46628        -3.19242
   H        1.11861        -6.88649         0.17963
   H        2.09014        -5.03005        -1.10940
   H       -5.01331        -5.94066        -1.42074
   H       -3.99275        -4.70307        -2.15664
   H       -3.81254        -5.62888         0.75183
   H       -4.53656        -4.12324         0.18701
   H       -2.80163        -4.38428         0.01430
   H       -3.37577        -6.33362        -3.87246
   H       -4.28088        -7.64067        -3.10464
   H       -1.29151        -7.68101        -3.73879
   H       -2.55775        -8.58203        -4.57886
   H       -2.16824        -8.96587        -2.90380
   H       -4.91160        -8.43665        -0.71991
   H       -2.17748       -10.21552         2.04573
   H       -0.38823        -8.68941         1.31167
   H       -4.84570       -12.21314         5.28759
   H       -7.75357       -14.28929         2.51407
   H       -6.27594       -11.11076        -1.66351
   H       -3.27858       -11.29073        -1.09447
   H       -1.99422       -12.08603        -2.91058
   H       -5.40281       -10.39292        -6.09128
   H       -5.84259       -10.38008        -3.67536
   H       -0.33042       -10.14318        -5.79429
   H        0.80031       -11.46020        -6.10423
   H       -0.28711       -10.62369        -3.37761
   H        1.34048       -10.38013        -3.99503
   H        0.78068       -12.01091        -3.64558
   H       -0.59315       -13.65587        -4.34112
   H        0.07276       -13.81661        -5.96809
   H       -2.84219       -14.31285        -5.18687
   H       -1.63483       -15.55645        -5.52040
   H       -2.18130       -14.48808        -6.81336
   H        0.04345       -12.62629        -8.26195
   H       -3.25854       -11.12705       -10.54741
   H       -4.51216       -10.66659        -8.48840
   H       -0.07017       -12.99572       -10.61808
   H       -1.46780        -7.75491       -13.73228
   H        1.16430       -11.46724       -15.74560
*
