# ORCA input file
# SCF done       -221.989805140150          0.000829690379
! CAM-B3LYP def2-SVP def2/J RIJCOSX Grid4 TightSCF
%maxcore 5000
%tddft
    Mode sTDDFT
    Ethresh 5.0
    maxcore 5000
end

%pal
  nprocs 6
  end
* xyz 0 1
   C        1.10372        -4.24486        -3.29303
   C        2.23055        -3.69969        -3.83474
   C        2.85622        -4.17872        -5.00895
   N        3.41522        -4.52633        -5.94782
   C        2.93963        -2.59839        -3.30210
   N        3.56199        -1.70494        -2.94155
   C        0.35418        -5.38002        -3.81581
   C       -0.69820        -5.69435        -2.93385
   C       -1.57700        -6.72954        -3.18856
   C       -1.40866        -7.46812        -4.35219
   C       -0.36540        -7.16033        -5.23852
   C        0.51864        -6.12019        -4.97712
  Cl       -0.17125        -8.07817        -6.67251
  Cl       -2.47996        -8.75751        -4.70744
   C       -0.68296        -4.77208        -1.78902
   O       -1.39153        -4.79194        -0.80902
   C        0.42448        -3.80796        -2.07573
   C        0.67950        -2.72492        -1.32322
   C       -0.09974        -2.35371        -0.14929
   C        0.51967        -2.22322         1.08942
   C        1.94244        -2.45425         1.43085
   O        2.82909        -2.81409         0.69764
   N        2.04603        -2.18260         2.79419
   C        0.80919        -1.83450         3.36448
   O        0.64128        -1.56586         4.52196
   C       -0.17123        -1.87415         2.25165
   C       -1.53235        -1.64116         2.24438
   C       -2.16364        -1.75464         1.00721
   C       -1.47821        -2.08424        -0.15941
   C       -2.32199        -2.10843        -1.37275
   O       -1.98133        -2.28606        -2.50539
   S       -4.02071        -1.78719        -0.90710
   C       -3.61654        -1.54760         0.82880
   O       -4.41991        -1.26944         1.66342
   C        3.19350        -2.22632         3.57913
   C        4.42741        -2.50166         3.13052
   C        5.58848        -2.53394         3.95975
   N        6.82143        -2.80788         3.41102
   C        7.75245        -2.77931         4.40151
   C        9.10205        -2.92754         4.68333
   C        9.23563        -2.72564         6.06842
   N        7.99445        -2.45390         6.61133
   C        7.07654        -2.47771         5.61621
   C        5.72137        -2.32386         5.33489
   C       10.43368        -2.79685         6.81159
   C       10.50267        -2.62677         8.15929
   C       11.65067        -2.61139         9.00130
   C       11.54807        -1.93195        10.24011
   C       10.38243        -1.24855        10.82718
   O        9.26559        -1.09901        10.40113
   N       10.81480        -0.73073        12.06836
   C       12.16603        -1.01186        12.30670
   O       12.79813        -0.69037        13.27511
   C       12.61784        -1.77582        11.11808
   C       13.87501        -2.27776        10.83988
   C       13.98658        -3.00142         9.65867
   C       12.92724        -3.20276         8.77209
   C       13.25589        -4.15933         7.70266
   O       12.54545        -4.66790         6.88714
   S       15.00889        -4.59847         7.79869
   C       15.26553        -3.64314         9.28154
   O       16.30997        -3.55811         9.85320
   C        9.93314        -0.06035        12.88856
   C       10.25983         0.55818        14.03862
   C        9.34328         1.26818        14.86590
   C        8.01077         1.04936        15.05210
   C        7.14542         1.87181        15.88601
   C        7.38201         3.16128        16.27633
   C        6.49402         3.92252        17.06720
   N        5.81633         4.58806        17.71074
   C        8.51477         3.92266        15.91259
   N        9.39001         4.61355        15.64021
   C        5.92963         1.11109        16.15049
   C        5.99116        -0.09959        15.43969
   C        7.25895        -0.17887        14.68265
   O        7.60204        -1.08958        13.96283
   C        4.96761        -1.02460        15.48808
   C        3.85436        -0.73550        16.26665
   C        3.78737         0.46571        16.98378
   C        4.82010         1.39498        16.93086
  Cl        2.40958         0.80578        17.94915
  Cl        2.55679        -1.85591        16.34833
   H       -2.37648        -6.95261        -2.49970
   H        1.30582        -5.91102        -5.68293
   H        1.52628        -2.08558        -1.53552
   H       -2.08516        -1.38753         3.13476
   H        2.98527        -1.99954         4.61476
   H        4.58084        -2.71483         2.08283
   H        6.98204        -2.99424         2.43576
   H        9.90507        -3.16333         4.01468
   H        7.82200        -2.24574         7.57992
   H        4.92915        -2.09376         6.01684
   H       11.31942        -2.98202         6.22614
   H        9.59104        -2.37923         8.68331
   H       14.71658        -2.14390        11.49946
   H        8.93218        -0.04291        12.48027
   H       11.29497         0.59079        14.34734
   H        9.80095         2.05258        15.45779
   H        5.03305        -1.94629        14.93179
   H        4.73667         2.30673        17.49926
*
