# ORCA input file
# SCF done       -153.047867825325          0.000967949993
! CAM-B3LYP def2-SVP def2/J RIJCOSX Grid4 TightSCF
%maxcore 5000
%tddft
    Mode sTDDFT
    Ethresh 5.0
    maxcore 5000
end

%pal
  nprocs 6
  end
* xyz 0 1
   C        5.15892         2.90280        -2.59799
   C        4.23658         2.02808        -2.22029
   C        4.41345         0.58226        -2.23125
   C        3.40986        -0.23809        -2.75969
   C        2.08442         0.14136        -3.29596
   O        1.56417         1.21948        -3.38167
   N        1.48215        -1.06338        -3.71547
   C        2.30725        -2.17517        -3.48791
   O        2.04523        -3.31698        -3.74149
   C        3.54060        -1.62304        -2.87018
   C        4.67581        -2.28564        -2.44487
   C        5.66011        -1.49162        -1.86740
   C        5.54414        -0.10580        -1.74856
   C        6.65593         0.51468        -0.99080
   O        6.78295         1.64439        -0.63378
   S        7.87106        -0.75457        -0.58014
   C        6.90701        -2.06951        -1.31621
   O        7.24217        -3.21343        -1.33691
   C        0.21261        -1.05625        -4.25827
   C       -0.42206        -2.12886        -4.76543
   C       -1.74632        -2.07827        -5.29791
   C       -2.30021        -3.22819        -5.90943
   C       -3.57296        -3.19388        -6.58806
   N       -4.17002        -4.35541        -6.86973
   C       -3.52180        -5.48297        -6.73605
   C       -2.13844        -5.47121        -6.35031
   N       -1.60656        -4.37298        -5.88720
   C       -1.37308        -6.66149        -6.41923
   N       -0.79258        -7.64383        -6.51090
   C       -4.20516        -6.69953        -6.97401
   N       -4.73329        -7.68998        -7.20186
   C       -4.23489        -1.96796        -6.86641
   C       -3.84455        -0.91516        -6.00819
   C       -2.60484        -0.96033        -5.25720
   N       -2.43667         0.14755        -4.52999
   S       -3.70729         1.10127        -4.71137
   N       -4.53360         0.19066        -5.73400
   C       -5.30821        -1.91863        -7.81147
   C       -5.64921        -3.03388        -8.60634
   C       -4.79285        -4.08379        -9.21512
   O       -3.59183        -4.09088        -9.34363
   N       -5.67251        -5.00332        -9.78326
   C       -6.99218        -4.53876        -9.77396
   O       -7.93384        -5.11549       -10.24430
   C       -6.94445        -3.22269        -9.08906
   C       -7.93839        -2.27569        -8.92233
   C       -7.50524        -1.04331        -8.43933
   C       -6.20806        -0.83046        -7.97343
   C       -5.85742         0.59716        -7.92780
   O       -4.78220         1.10118        -8.05607
   S       -7.38035         1.56937        -7.94102
   C       -8.37575         0.15067        -8.39713
   O       -9.54611         0.20251        -8.62015
   C       -5.34756        -6.22495       -10.37162
   C       -4.12913        -6.77187       -10.42044
   C       -3.88919        -8.06683       -11.00207
   C       -2.68930        -8.64228       -11.02287
   H        4.95004         3.95783        -2.60910
   H        6.14087         2.60511        -2.92407
   H        3.23816         2.35991        -1.96972
   H        4.79418        -3.35371        -2.53341
   H       -0.24680        -0.07548        -4.24128
   H        0.05611        -3.09629        -4.80476
   H       -8.95721        -2.43636        -9.23466
   H       -6.22041        -6.72164       -10.77396
   H       -3.27304        -6.25248       -10.01727
   H       -4.74758        -8.57136       -11.42431
   H       -1.82459        -8.15804       -10.59995
   H       -2.53224        -9.61433       -11.45592
*
