# ORCA input file
# SCF done       -200.126700620199          0.000780357390
! CAM-B3LYP def2-SVP def2/J RIJCOSX Grid4 TightSCF
%maxcore 5000
%tddft
    Mode sTDDFT
    Ethresh 5.0
    maxcore 5000
end

%pal
  nprocs 6
  end
* xyz 0 1
   C        1.87785       -10.66799         3.73890
   O        1.19627        -9.67552         3.58211
   C        3.35232       -10.70671         3.70405
   C        3.80244       -12.02214         3.89971
   C        5.16662       -12.27256         3.95598
   C        6.04823       -11.21239         3.81138
   C        5.57909        -9.92042         3.60900
   C        4.22064        -9.64575         3.55058
  Br        6.81714        -8.50478         3.39459
   C        2.64174       -12.89493         4.04179
   C        2.69237       -14.23699         4.31614
   C        3.88964       -14.97811         4.41368
   N        4.82131       -15.64462         4.48519
   C        1.58039       -15.07302         4.55171
   N        0.73252       -15.81673         4.76937
   C        1.44675       -12.07549         3.93116
   C        0.17147       -12.57493         3.86335
   C       -1.06426       -11.88963         3.96389
   C       -1.23575       -10.65123         4.55109
   C       -2.44799        -9.99937         4.67756
   C       -3.70847       -10.59259         4.24548
   C       -3.79473       -11.82051         3.67684
   S       -2.43877       -12.81967         3.37161
   C       -4.70589        -9.63151         4.57409
   C       -4.11694        -8.50202         5.15886
   C       -5.08058        -7.52790         5.50336
   C       -6.33790        -7.92955         5.18071
   S       -6.41115        -9.49567         4.44729
   C       -2.69593        -8.70697         5.22644
   C       -1.66310        -7.87732         5.66963
   C       -1.75382        -6.59113         6.13352
   C       -0.65457        -5.82058         6.55922
   C        0.68862        -6.27778         6.71330
   C        1.75518        -5.37045         7.06256
   N        3.01896        -5.80671         7.05916
   C        3.27984        -7.07678         6.84338
   C        2.20727        -7.99873         6.67701
   N        0.96587        -7.57287         6.58468
   C        2.45807        -9.38666         6.59223
   N        2.68615       -10.50643         6.49425
   C        4.61326        -7.54169         6.76084
   N        5.66014        -7.99822         6.66518
   C        1.54374        -4.01989         7.43373
   C        0.19590        -3.57375         7.33152
   C       -0.85657        -4.45385         6.88194
   N       -2.03816        -3.84266         6.84233
   S       -1.86888        -2.31583         7.30955
   N       -0.28093        -2.35568         7.59155
   C        2.60068        -3.24181         7.99130
   C        2.30745        -2.03437         8.61290
   C        3.14543        -1.36849         9.47909
   C        4.57154        -1.63087         9.51563
   C        5.11771        -2.68954         8.86959
   S        4.21986        -3.89459         8.02806
   C        5.11543        -0.61136        10.35528
   C        4.08438         0.17362        10.88524
   C        4.56785         1.15933        11.77264
   C        5.92098         1.10800        11.88389
   S        6.65771        -0.14145        10.93665
   C        2.82314        -0.32742        10.40932
   C        1.55376        -0.06786        10.93364
   C        0.51059        -0.95776        10.76635
   C       -0.79951        -0.85131        11.20501
   C       -1.77443        -1.81503        10.99040
   C       -3.19094        -1.42793        11.16460
   O       -3.61430        -0.40816        11.66342
   C       -3.98152        -2.52519        10.55792
   C       -3.10556        -3.53555        10.12771
   C       -1.72707        -3.15342        10.47272
   C       -0.67225        -4.04144        10.38408
   C       -0.75774        -5.32487         9.81515
   N       -0.70275        -6.36516         9.32478
   C        0.64906        -3.90090        10.85227
   N        1.74826        -3.94945        11.18843
   C       -3.61785        -4.65475         9.49015
   C       -4.98837        -4.74348         9.29029
   C       -5.83273        -3.73575         9.72941
   C       -5.34498        -2.60682        10.37535
  Br       -7.70220        -3.90394         9.42726
   H        5.55558       -13.26541         4.11040
   H        7.11177       -11.38969         3.85719
   H        3.84913        -8.64416         3.39621
   H        0.07326       -13.64242         3.70304
   H       -0.35437       -10.17923         4.95249
   H       -4.73306       -12.25428         3.36839
   H       -4.86867        -6.58107         5.96470
   H       -7.25527        -7.39400         5.32962
   H       -0.67226        -8.30003         5.61670
   H       -2.70446        -6.07779         6.15460
   H        1.32209        -1.63615         8.42652
   H        6.17454        -2.90430         8.90386
   H        3.95484         1.87175        12.29374
   H        6.55505         1.73709        12.47735
   H        1.42628         0.79539        11.57396
   H        0.74464        -1.86775        10.24677
   H       -1.14888         0.06785        11.66113
   H       -2.98661        -5.45204         9.13586
   H       -5.40138        -5.60756         8.79246
   H       -5.99717        -1.82012        10.72144
*
