# ORCA input file
# SCF done       -184.091865647806          0.000530371872
! CAM-B3LYP def2-SVP def2/J RIJCOSX Grid4 TightSCF
%maxcore 5000
%tddft
    Mode sTDDFT
    Ethresh 5.0
    maxcore 5000
end

%pal
  nprocs 6
  end
* xyz 0 1
   C       -4.23208        -6.06973        -2.66987
   C       -4.42407        -6.84610        -1.55449
   C       -4.06235        -8.20681        -1.46888
   N       -3.79131        -9.31457        -1.33509
   C       -5.02607        -6.42808        -0.34916
   N       -5.52125        -6.17549         0.65664
   C       -3.67929        -6.54107        -3.93645
   C       -3.71468        -5.47703        -4.87063
   C       -3.27480        -5.60780        -6.16478
   C       -2.77341        -6.85270        -6.55947
   C       -2.73829        -7.91023        -5.62003
   C       -3.18368        -7.77622        -4.31042
   S       -2.08191        -9.36098        -6.31570
   C       -1.86866        -8.53882        -7.83840
   C       -2.26623        -7.24428        -7.82858
  Br       -1.14137        -9.46651        -9.29718
   C       -4.28346        -4.28136        -4.22149
   O       -4.45857        -3.19608        -4.74497
   C       -4.57248        -4.66930        -2.83615
   C       -5.03722        -3.84798        -1.83954
   C       -5.44059        -2.50673        -1.86868
   S       -5.55023        -1.50721        -3.29312
   C       -6.22825        -0.24246        -2.37144
   C       -6.38910        -0.52355        -1.04132
   C       -6.91744         0.47711        -0.06718
   C       -5.93046        -1.82709        -0.72875
   C       -5.89207        -2.39777         0.58901
   C       -6.79911        -2.18890         1.57034
   C       -6.65983        -2.75696         2.86516
   C       -7.61267        -2.65262         3.82440
   C       -7.45829        -3.18922         5.12643
   O       -8.49614        -3.11941         6.00586
   C       -6.39102        -3.80074         5.76252
   C       -4.99935        -4.22857         5.60721
   O       -4.24316        -4.15123         4.67187
   N       -4.68238        -4.77157         6.84915
   C       -5.70644        -4.73290         7.79731
   O       -5.61196        -5.13577         8.92974
   C       -6.81233        -4.10443         7.07844
   C       -8.12649        -3.67339         7.19695
   C       -9.00436        -3.74966         8.29488
   C      -10.30230        -3.31635         8.26398
   C      -11.23662        -3.35578         9.31055
   C      -11.06668        -3.77448        10.61331
   C      -12.08303        -3.77717        11.60351
   C      -11.68023        -4.21336        12.83049
   C      -10.31837        -4.57884        12.88019
   S       -9.57441        -4.35831        11.31486
   C       -9.56773        -5.04176        13.94600
   C       -9.96790        -5.27419        15.28067
   C       -8.95672        -5.71041        16.08369
   C       -7.71060        -5.84329        15.42237
   S       -7.87059        -5.40638        13.73851
   C       -6.51213        -6.23642        15.97216
   C       -5.33077        -6.32553        15.22729
   O       -5.32983        -6.05450        13.91144
   C       -4.06597        -6.20914        13.43410
   C       -3.22727        -6.58475        14.45511
   C       -4.01864        -6.66904        15.62895
   C       -3.63340        -7.01055        16.96318
   O       -4.35464        -7.07142        17.93816
   C       -2.11933        -7.32262        17.12708
   F       -1.34915        -6.27728        16.77017
   F       -1.80247        -7.62888        18.38299
   F       -1.73085        -8.35734        16.35859
   C       -3.84647        -5.97030        12.03261
   C       -2.66244        -6.06492        11.43229
   H       -3.31795        -4.77710        -6.85158
   H       -3.13374        -8.61316        -3.63449
   H       -2.20555        -6.59129        -8.67999
   H       -5.12464        -4.30171        -0.86134
   H       -6.47548         0.68504        -2.85264
   H       -6.76752         1.48321        -0.45200
   H       -6.41257         0.38254         0.89174
   H       -7.98653         0.33529         0.08973
   H       -5.06821        -3.06434         0.81009
   H       -7.69069        -1.60966         1.37875
   H       -5.74555        -3.29192         3.08329
   H       -8.54981        -2.15034         3.62618
   H       -3.77301        -5.16276         7.04847
   H       -8.56946        -4.19898         9.17270
   H      -10.65776        -2.90305         7.32882
   H      -12.23244        -3.00245         9.07308
   H      -13.08358        -3.45382        11.37543
   H      -12.32008        -4.27736        13.69212
   H      -10.97841        -5.11248        15.61088
   H       -9.05922        -5.93913        17.12942
   H       -6.45204        -6.48293        17.02038
   H       -2.17830        -6.77759        14.37221
   H       -4.72922        -5.70091        11.46868
   H       -1.76562        -6.33164        11.96449
   H       -2.56536        -5.87571        10.37874
*
