# ORCA input file
# SCF done       -155.074958671089          0.000465107052
! CAM-B3LYP def2-SVP def2/J RIJCOSX Grid4 TightSCF
%maxcore 5000
%tddft
    Mode sTDDFT
    Ethresh 5.0
    maxcore 5000
end

%pal
  nprocs 6
  end
* xyz 0 1
   C       -6.49516         6.78142         2.50837
   C       -5.49174         7.45101         1.86038
   C       -5.47205         8.84850         1.66152
   N       -5.39235         9.97767         1.47124
   C       -4.32369         6.86916         1.32299
   N       -3.34534         6.48039         0.86395
   C       -7.67894         7.39594         3.09329
   C       -8.42961         6.40219         3.76814
   C       -9.59967         6.67786         4.43293
   C      -10.05856         7.99859         4.42585
   C       -9.30426         8.98642         3.74701
   C       -8.11940         8.70869         3.07930
   S      -10.04707        10.55313         3.86993
   C      -11.34096         9.86917         4.81804
   C      -11.22637         8.53681         5.03176
  Br      -12.71983        10.97873         5.43724
   C       -7.73854         5.10284         3.65818
   O       -8.01165         4.08979         4.25806
   C       -6.57812         5.34378         2.75314
   C       -5.74192         4.39714         2.27047
   C       -5.88107         2.95570         2.39399
   C       -4.78115         2.17711         2.40276
   C       -7.17009         2.38448         2.43119
   C       -8.26233         1.86154         2.38494
   C       -9.53328         1.29924         2.36440
   C      -10.59705         1.93246         1.81473
   C      -11.90526         1.39427         1.77478
   S      -12.32495        -0.14749         2.48011
   C      -14.00443        -0.03676         2.01146
   C      -14.21554         1.16376         1.32529
   C      -13.03815         1.94790         1.20622
   S      -13.39368         3.41398         0.35160
   C      -15.05666         2.84668         0.23431
   N      -15.32179         1.71550         0.76150
   C      -14.89311        -1.05945         2.36197
   C      -16.22857        -1.06077         2.03321
   C      -17.18063        -2.01931         2.39521
   C      -17.03937        -3.12492         3.21513
   C      -18.06676        -4.03818         3.54975
   C      -17.68925        -5.03597         4.40541
   C      -16.33809        -4.96093         4.78931
   S      -15.56522        -3.59118         4.03146
   C      -15.57854        -5.76577         5.62587
   C      -15.91114        -6.91720         6.36345
   C      -14.86452        -7.42953         7.07623
   C      -13.65049        -6.70967         6.93451
   S      -13.89883        -5.35207         5.86094
   C      -12.45429        -7.00784         7.54320
   C      -11.23322        -6.31896         7.41196
   S       -9.83655        -6.84239         8.34908
   C       -8.78736        -5.62951         7.72581
   C       -9.46042        -4.83793         6.82608
   C      -10.82671        -5.23022         6.65524
   O      -11.43297        -4.42930         5.75528
   C      -10.49260        -3.53702         5.35503
   N      -10.89305        -2.58082         4.40329
   O      -10.05066        -1.78079         4.02932
   O      -12.04439        -2.61047         4.01394
   C       -9.27605        -3.72449         5.96123
   H      -10.14302         5.89663         4.94087
   H       -7.58292         9.49721         2.57892
   H      -11.93377         7.95585         5.59482
   H       -4.86387         4.70969         1.72019
   H       -3.79429         2.60343         2.34235
   H       -4.85662         1.10890         2.50461
   H       -9.64544         0.31956         2.81365
   H      -10.47336         2.90938         1.36248
   H      -15.78486         3.45382        -0.26624
   H      -14.44863        -1.87076         2.91836
   H      -16.58253        -0.23278         1.43323
   H      -18.17892        -1.87314         2.00037
   H      -19.06049        -3.93199         3.15024
   H      -18.34448        -5.80987         4.76379
   H      -16.90121        -7.33757         6.35303
   H      -14.92474        -8.30463         7.69913
   H      -12.43952        -7.86331         8.20479
   H       -7.77010        -5.57901         8.05144
   H       -8.39284        -3.14233         5.79956
*
