# ORCA input file
# SCF done       -198.107829359185          0.000635672287
! CAM-B3LYP def2-SVP def2/J RIJCOSX Grid4 TightSCF
%maxcore 5000
%tddft
    Mode sTDDFT
    Ethresh 5.0
    maxcore 5000
end

%pal
  nprocs 6
  end
* xyz 0 2
   C       -7.58382        -0.31426        -5.52935
   C       -7.99875        -1.39291        -4.79651
   C       -9.10605        -2.19620        -5.14242
   N       -9.99337        -2.88424        -5.38145
   C       -7.44928        -1.80090        -3.56019
   N       -7.10917        -2.16815        -2.52767
   C       -8.26779         0.22661        -6.69786
   C       -7.68998         1.47882        -7.01436
   C       -8.13167         2.25888        -8.05555
   C       -9.19160         1.77461        -8.82801
   C       -9.75813         0.51695        -8.51035
   C       -9.31445        -0.26866        -7.45368
   S      -11.05292         0.10788        -9.59474
   C      -10.82034         1.61213       -10.44566
   C       -9.82432         2.38191        -9.94723
  Br      -11.91310         2.02458       -11.91329
   C       -6.58718         1.77072        -6.07590
   O       -5.94524         2.79895        -6.05383
   C       -6.45884         0.55927        -5.22708
   C       -5.41795         0.21347        -4.41373
   C       -4.26822         0.96006        -4.08244
   O       -4.08455         2.25361        -4.44452
   C       -3.15568         0.55866        -3.35635
   C       -2.52155        -0.58314        -2.66925
   O       -2.91476        -1.69750        -2.47103
   N       -1.31335        -0.05534        -2.21721
   C       -1.05311         1.25164        -2.60049
   O       -0.04208         1.86396        -2.37131
   C       -2.27937         1.65892        -3.30458
   C       -2.89443         2.69172        -3.99428
   C       -2.48491         4.03601        -4.25169
   C       -3.19765         4.87109        -5.02938
   C       -2.82041         6.26368        -5.23649
   C       -2.64258         7.08177        -4.16363
   S       -2.24645         8.70896        -4.55924
   C       -2.23718         8.29279        -6.24418
   C       -2.58559         6.95319        -6.48224
   C       -2.62283         6.47606        -7.81208
   C       -3.10393         5.07006        -8.03624
   C       -4.62329         5.04886        -8.22391
   C       -2.24789         7.29830        -8.86967
   C       -2.46811         6.83917       -10.29091
   C       -3.30016         7.83703       -11.09846
   C       -1.74013         8.59448        -8.59940
   C       -1.07134         9.55965        -9.45921
   C       -0.86522        10.75716        -8.80943
   S       -1.33178        10.76408        -7.16846
   C       -1.83776         9.10028        -7.29579
   C       -0.43761         9.22306       -10.68388
   C        0.34048        10.01573       -11.48627
   C        1.24713         9.52209       -12.43537
   C        1.74512         8.23094       -12.53601
   C        2.81792         7.82276       -13.35738
   C        3.25067         6.53924       -13.13680
   C        2.51711         5.85911       -12.15534
   S        1.25816         6.88442       -11.52706
   C        2.68030         4.58849       -11.60053
   C        3.77215         3.71149       -11.73635
   C        3.67571         2.62097       -10.92185
   C        2.49004         2.57708       -10.14464
   S        1.46590         3.94129       -10.53139
   C        2.28328         1.64105        -9.15851
   N        1.22227         1.46120        -8.35739
   C        1.20059         0.59297        -7.26949
   C        2.41295        -0.07231        -6.73686
   C       -0.09059         0.50773        -6.84511
   C       -0.93405         1.29891        -7.68307
   C       -0.14453         1.96284        -8.62467
   O       -0.35978         2.78853        -9.50092
   C       -2.25764         1.08108        -7.21803
   C       -3.49785         1.58391        -7.84801
   N       -2.28450         0.30555        -6.15462
   C       -0.99845        -0.08528        -5.81938
   O       -0.68853        -0.75697        -4.85829
   H       -7.67546         3.21356        -8.26696
   H       -9.77626        -1.22099        -7.25406
   H       -9.54614         3.33877       -10.34977
   H       -5.41060        -0.77445        -3.97071
   H       -0.60656        -0.64096        -1.79615
   H       -1.54590         4.33168        -3.80700
   H       -4.12548         4.52006        -5.46239
   H       -2.76773         6.81557        -3.13204
   H       -2.83534         4.46951        -7.16715
   H       -2.60120         4.61718        -8.89056
   H       -5.11663         5.49965        -7.36584
   H       -4.98134         4.02840        -8.32481
   H       -4.91337         5.60960        -9.11013
   H       -3.01299         5.90018       -10.28914
   H       -1.51806         6.63344       -10.78703
   H       -4.24965         8.01710       -10.59829
   H       -3.50421         7.42930       -12.08601
   H       -2.79663         8.79134       -11.22245
   H       -0.39528        11.63206        -9.21352
   H       -0.50481         8.18544       -10.95083
   H        0.29955        11.09158       -11.38050
   H        1.71426        10.24502       -13.09205
   H        3.26706         8.49349       -14.06869
   H        4.07385         6.08338       -13.65734
   H        4.60803         3.91557       -12.38153
   H        4.42648         1.85406       -10.84372
   H        3.10013         0.94738        -8.98776
   H        2.80677        -0.80588        -7.44297
   H        2.14284        -0.58820        -5.81949
   H        3.19565         0.65537        -6.51987
   H       -4.14901         0.74335        -8.08691
   H       -3.26332         2.13937        -8.75119
   H       -4.03475         2.21876        -7.14558
*
