# ORCA input file
# SCF done       -197.873034704074          0.000437909493
! CAM-B3LYP def2-SVP def2/J RIJCOSX Grid4 TightSCF
%maxcore 5000
%tddft
    Mode sTDDFT
    Ethresh 5.0
    maxcore 5000
end

%pal
  nprocs 6
  end
* xyz 0 1
   C       -6.20655       -11.52397        -2.82538
   C       -6.20151       -11.07669        -1.52353
   C       -5.24595       -11.45757        -0.56703
   N       -4.48866       -11.70853         0.26155
   C       -7.14765       -10.20419        -0.95014
   N       -7.88222        -9.52172        -0.38826
   C       -5.28523       -12.51652        -3.37529
   C       -5.69223       -12.82549        -4.69555
   C       -5.03339       -13.73871        -5.48001
   C       -3.91123       -14.37583        -4.93770
   C       -3.50767       -14.05591        -3.62133
   C       -4.17908       -13.13413        -2.82573
   S       -2.09476       -14.95234        -3.15048
   C       -2.06828       -15.73532        -4.70807
   C       -3.06376       -15.34676        -5.53905
  Br       -0.72817       -16.99186        -5.09002
   C       -6.87863       -12.01259        -5.04118
   O       -7.48885       -12.04910        -6.09237
   C       -7.13660       -11.16538        -3.86058
   C       -8.06897       -10.14517        -3.81445
   C       -8.96363        -9.85702        -4.83717
   C       -9.84993        -8.79521        -4.81058
   C      -10.79631        -8.48174        -5.81008
   C      -11.54438        -7.37212        -5.53863
   C      -11.21617        -6.75463        -4.31496
   S       -9.93785        -7.63041        -3.50909
   C      -11.77721        -5.60696        -3.77004
   C      -12.82250        -4.83310        -4.31682
   C      -13.15764        -3.75512        -3.54997
   C      -12.38830        -3.63413        -2.37276
   S      -11.22466        -4.92839        -2.25615
   C      -12.49534        -2.65215        -1.40879
   C      -11.67273        -2.62884        -0.28946
   S      -11.83229        -1.36337         0.96953
   C      -10.54454        -2.13142         1.79865
   C      -10.09385        -3.26220         1.07871
   N      -10.72228        -3.51070        -0.04822
   C       -8.97000        -3.93316         1.79960
   C       -8.84063        -3.06172         3.01481
   C       -9.78587        -2.01596         2.96771
   S       -9.69357        -0.98789         4.33463
   C       -8.38012        -1.95923         4.99376
   C       -8.05585        -3.02576         4.14690
   C       -7.84116        -1.59569         6.23363
   C       -6.83260        -2.25073         6.89833
   C       -6.37390        -1.84547         8.14986
   C       -5.37986        -2.47640         8.86940
   C       -4.90679        -2.11698        10.14947
   C       -3.92184        -2.93023        10.63106
   C       -3.56383        -3.96938         9.74793
   S       -4.51679        -3.88948         8.28968
   C       -2.59238        -4.94137         9.93132
   C       -1.73641        -5.13018        11.03375
   C       -0.85797        -6.16119        10.87128
   C       -0.95157        -6.81940         9.62227
   S       -2.24520        -6.11855         8.68646
   C       -0.18206        -7.90650         9.24165
   C       -0.15007        -8.60238         8.03684
   C       -0.58578        -8.29187         6.76119
   C       -0.89538        -7.07005         6.08690
   C       -0.46841        -5.80313         6.43242
   C       -0.84274        -4.62816         5.75767
   N       -1.14684        -3.63007         5.27558
   C        0.46275        -5.55425         7.45584
   N        1.24018        -5.31050         8.26597
   C       -1.57531        -7.40765         4.83732
   C       -1.51273        -8.81095         4.65372
   C       -0.83466        -9.41414         5.82104
   O       -0.56027       -10.58150         5.99494
   C       -2.01489        -9.43209         3.53752
   C       -2.61265        -8.62923         2.55865
   C       -2.68675        -7.23253         2.76115
   C       -2.17524        -6.60261         3.89048
   S       -3.45888        -6.43514         1.42323
   C       -3.64895        -7.97127         0.61543
   C       -3.17380        -9.02691         1.31317
  Br       -4.42947        -8.01649        -1.09002
   H       -5.37013       -13.95504        -6.48175
   H       -3.82917       -12.92495        -1.82901
   H       -3.19675       -15.72725        -6.53534
   H       -8.09834        -9.51215        -2.93564
   H       -8.97431       -10.49261        -5.71125
   H      -10.89579        -9.08430        -6.69520
   H      -12.31085        -6.98769        -6.18687
   H      -13.30099        -5.08353        -5.24623
   H      -13.92952        -3.04694        -3.79439
   H      -13.23844        -1.87776        -1.52266
   H       -8.05898        -3.94792         1.19839
   H       -9.21229        -4.96768         2.04953
   H       -7.27687        -3.72937         4.37569
   H       -8.27587        -0.72301         6.70466
   H       -6.37156        -3.12107         6.45246
   H       -6.83065        -0.97691         8.60722
   H       -5.30694        -1.26986        10.67820
   H       -3.44541        -2.80538        11.58634
   H       -1.78172        -4.50539        11.90711
   H       -0.12071        -6.45094        11.59818
   H        0.43316        -8.31375        10.03504
   H        0.24387        -9.61365         8.10364
   H       -1.94598       -10.50116         3.41282
   H       -2.25289        -5.53382         4.00148
   H       -3.22822       -10.04759         0.97663
*
