# ORCA input file
# SCF done       -227.460154005420          0.000628085806
! CAM-B3LYP def2-SVP def2/J RIJCOSX Grid4 TightSCF
%maxcore 5000
%tddft
    Mode sTDDFT
    Ethresh 5.0
    maxcore 5000
end

%pal
  nprocs 6
  end
* xyz 0 1
   C       -8.91193         2.97690        -0.13710
   C       -8.23853         1.77449        -0.13375
   C       -7.04643         1.53956         0.57731
   N       -6.08220         1.27452         1.14384
   C       -8.61610         0.60733        -0.82546
   N       -8.82211        -0.38985        -1.36088
   C       -8.46070         4.19464         0.53507
   C       -9.40869         5.22003         0.29931
   C       -9.25958         6.49289         0.78980
   C       -8.11768         6.77049         1.55061
   C       -7.17700         5.74104         1.77989
   C       -7.32853         4.45130         1.28323
   S       -5.83899         6.29930         2.73928
   C       -6.55389         7.88764         2.81653
   C       -7.73259         7.99653         2.16013
  Br       -5.67476         9.25337         3.75625
   C      -10.51010         4.68182        -0.53060
   O      -11.48973         5.29305        -0.91242
   C      -10.16060         3.27407        -0.78385
   C      -10.93299         2.38464        -1.50610
   C      -12.15827         2.65171        -2.10073
   C      -12.85537         1.66819        -2.78519
   C      -14.12120         1.76373        -3.39984
   C      -14.55157         0.59937        -3.97717
   C      -13.63812        -0.46176        -3.84639
   S      -12.21479         0.05391        -2.97569
   C      -13.72866        -1.77764        -4.28152
   C      -14.77664        -2.44325        -4.94601
   C      -14.51610        -3.76212        -5.19070
   C      -13.25442        -4.20411        -4.72838
   S      -12.40319        -2.86635        -3.98044
   C      -12.70677        -5.45104        -4.95291
   C      -11.46062        -5.93461        -4.53785
   S      -10.67272        -7.11604        -5.55856
   C       -9.19086        -7.04161        -4.66710
   C       -9.32672        -6.19986        -3.54950
   C      -10.62529        -5.60202        -3.45001
   C      -10.98295        -4.88482        -2.28929
   C      -10.01752        -4.67946        -1.34719
   C      -10.08590        -3.97446        -0.04708
   O      -11.02439        -3.43185         0.47949
   N       -8.81604        -4.08682         0.50130
   C       -8.44797        -3.50380         1.77387
   C       -8.17859        -2.01017         1.64124
   C       -7.93196        -4.80055        -0.29150
   O       -6.78954        -5.05803        -0.00395
   C       -8.70420        -5.18988        -1.49350
   C       -8.34786        -5.96248        -2.55901
   C       -8.03017        -7.74451        -5.06642
   C       -7.95935        -8.57605        -6.13125
   C       -6.74323        -9.20806        -6.57016
   C       -6.45880        -9.24426        -7.90936
   S       -4.84177        -9.67154        -8.27986
   C       -4.50226        -9.86470        -6.58400
   C       -5.62734        -9.66375        -5.77208
   C       -5.56046       -10.05049        -4.40654
   C       -6.84834       -10.33013        -3.67215
   C       -7.60467       -11.47774        -4.34700
   C       -4.32578       -10.32104        -3.83370
   C       -4.19770       -10.76941        -2.40080
   C       -4.32147       -12.29154        -2.29830
   C       -3.15073       -10.29055        -4.62724
   C       -1.77088       -10.50193        -4.26471
   C       -0.97195       -10.62631        -5.35752
   S       -1.78390       -10.44043        -6.86592
   C       -3.27660       -10.17987        -6.02186
   C       -1.17580       -10.48708        -2.93086
   C       -0.33550       -11.42623        -2.49193
   C        0.37362       -11.33819        -1.22274
   C        0.94830       -10.16273        -0.84635
   S        1.85053       -10.23975         0.61561
   C        1.44780       -11.92169         0.76858
   C        0.63548       -12.39368        -0.27334
   C        0.16579       -13.73035        -0.22945
   C       -0.86484       -14.15282        -1.24643
   C       -0.28015       -14.87951        -2.46014
   C        0.59806       -14.58584         0.77404
   C        0.24641       -16.04806         0.77149
   C        1.39111       -16.86709         0.16554
   C        1.42558       -14.10472         1.81988
   C        1.89197       -14.75150         3.02339
   C        2.58250       -13.89617         3.82325
   S        2.74452       -12.29888         3.20296
   C        1.81885       -12.75685         1.80914
   C        1.69762       -16.13419         3.46453
   C        1.27270       -16.44496         4.68084
   H       -9.99841         7.25371         0.59228
   H       -6.58137         3.70220         1.48483
   H       -8.30823         8.90246         2.10570
   H      -10.55881         1.37357        -1.61320
   H      -12.58881         3.63890        -2.02172
   H      -14.68069         2.68222        -3.39178
   H      -15.49304         0.48587        -4.48459
   H      -15.68687        -1.94294        -5.22315
   H      -15.19707        -4.43173        -5.68601
   H      -13.25927        -6.09057        -5.63159
   H      -11.99038        -4.54131        -2.12704
   H       -7.55350        -4.02852         2.11749
   H       -9.27243        -3.67664         2.47113
   H       -7.36731        -1.83049         0.94004
   H       -7.90292        -1.59594         2.60692
   H       -9.07046        -1.50416         1.27985
   H       -7.36073        -6.39100        -2.62711
   H       -7.13562        -7.54881        -4.49152
   H       -8.82534        -8.68879        -6.77205
   H       -7.11468        -8.95130        -8.70665
   H       -7.49713        -9.45639        -3.64732
   H       -6.64774       -10.61313        -2.64262
   H       -7.93281       -11.19521        -5.34410
   H       -8.48125       -11.74164        -3.75955
   H       -6.96870       -12.35608        -4.43509
   H       -4.94479       -10.28857        -1.76937
   H       -3.22301       -10.48513        -2.01472
   H       -5.29831       -12.63004        -2.63356
   H       -4.17855       -12.61107        -1.26849
   H       -3.56471       -12.76861        -2.91751
   H        0.09037       -10.77548        -5.35813
   H       -1.39824        -9.62513        -2.31410
   H       -0.12913       -12.28335        -3.11569
   H        0.92673        -9.23818        -1.39011
   H       -1.38872       -13.25742        -1.58202
   H       -1.61189       -14.79293        -0.77300
   H        0.61131       -14.37238        -2.82328
   H       -1.01291       -14.91598        -3.26427
   H       -0.00619       -15.89993        -2.20968
   H       -0.65959       -16.23718         0.19851
   H        0.06141       -16.37575         1.79566
   H        1.52532       -16.61989        -0.88422
   H        1.17982       -17.93146         0.24625
   H        2.33094       -16.65580         0.66973
   H        3.04147       -14.13394         4.76322
   H        1.96952       -16.91923         2.77421
   H        0.98652       -15.68793         5.39187
   H        1.17534       -17.46784         5.00241
*
