# ORCA input file
# SCF done       -214.123820405748          0.000485772413
! CAM-B3LYP def2-SVP def2/J RIJCOSX Grid4 TightSCF
%maxcore 5000
%tddft
    Mode sTDDFT
    Ethresh 5.0
    maxcore 5000
end

%pal
  nprocs 6
  end
* xyz 0 1
   C       -7.86595        -1.47644        -0.82852
   C       -7.38071        -2.70695        -0.47579
   C       -8.04700        -3.59370         0.39690
   N       -8.54898        -4.35357         1.09510
   C       -6.12551        -3.22470        -0.86571
   N       -5.10282        -3.69132        -1.09613
   C       -9.06836        -0.84963        -0.29884
   C       -9.09653         0.50278        -0.71857
   C      -10.10289         1.36732        -0.36073
   C      -11.13271         0.87260         0.44566
   C      -11.09999        -0.48333         0.85382
   C      -10.08115        -1.35637         0.49503
   S      -12.47248        -0.88762         1.83847
   C      -13.06305         0.74673         1.69349
   C      -12.27462         1.55548         0.94575
  Br      -14.66323         1.23058         2.54201
   C       -7.92130         0.79028        -1.56700
   O       -7.64625         1.85535        -2.06698
   C       -7.21094        -0.51470        -1.70220
   C       -6.23895        -0.82752        -2.60322
   C       -5.49730         0.03715        -3.44181
   O       -5.45836         1.38661        -3.30532
   C       -4.64711        -0.30859        -4.48123
   C       -4.13318        -1.43916        -5.26941
   O       -4.36784        -2.61481        -5.21258
   N       -3.26789        -0.83010        -6.17741
   C       -3.17675         0.55416        -6.07524
   O       -2.48167         1.25584        -6.76709
   C       -4.08643         0.88614        -4.97720
   C       -4.61817         1.92080        -4.21410
   C       -4.42494         3.32746        -4.23698
   C       -3.56569         3.91536        -5.10062
   C       -3.27457         5.32294        -5.13338
   C       -3.47899         6.08655        -4.01167
   S       -3.01200         7.72088        -4.15101
   C       -2.53482         7.43805        -5.79756
   C       -2.72172         6.11324        -6.22028
   C       -2.42082         5.79704        -7.57049
   C       -2.62682         4.38901        -8.06315
   C       -4.10826         4.07382        -8.27700
   C       -1.96340         6.78233        -8.44116
   C       -1.78923         6.48247        -9.90837
   C       -0.35040         6.08851       -10.24702
   C       -1.66858         8.08626        -7.96936
   C       -1.02773         9.22691        -8.59685
   C       -0.95023        10.29316        -7.74066
   S       -1.61296        10.02658        -6.18794
   C       -1.98802         8.39169        -6.63803
   C       -0.44473         9.32922        -9.91190
   C        0.63305        10.09513       -10.18714
   C        1.20565        10.20844       -11.48148
   S        2.61188        11.20988       -11.74496
   C        2.69986        10.84448       -13.45245
   C        1.67386         9.96613       -13.76197
   C        0.84607         9.62050       -12.67910
   S       -0.41001         8.54585       -13.23294
   C        0.25895         8.62737       -14.88148
   S       -0.33227         7.84959       -16.17048
   O        1.34435         9.40355       -14.94244
   C        3.62980        11.46781       -14.31283
   C        3.64917        11.25057       -15.65470
   C        4.47480        11.96847       -16.54439
   C        4.35495        11.99827       -17.90210
   C        3.32496        11.49376       -18.78630
   C        1.99096        11.33893       -18.50785
   C        1.03993        10.91189       -19.46026
   N        0.22745        10.56706       -20.19348
   C        1.35807        11.68937       -17.29672
   N        0.76123        11.99486       -16.36432
   C        3.91726        11.39542       -20.11878
   C        5.18381        12.03369       -20.10447
   C        5.47706        12.50258       -18.73611
   O        6.44189        13.12382       -18.35293
   C        5.97004        12.14080       -21.22578
   C        5.49093        11.58173       -22.41498
   C        4.23339        10.93185       -22.41531
   C        3.43369        10.83039       -21.28332
   S        3.84095        10.30068       -23.98530
   C        5.34889        10.91218       -24.61242
   C        6.10908        11.55583       -23.69508
  Br        5.77659        10.64420       -26.41821
   H      -10.09552         2.39357        -0.69291
   H      -10.10209        -2.38134         0.82547
   H      -12.48877         2.59089         0.75358
   H       -5.97455        -1.86810        -2.74666
   H       -2.74593        -1.35817        -6.86241
   H       -5.02299         3.88461        -3.53204
   H       -3.04077         3.27049        -5.78511
   H       -3.84762         5.74190        -3.06573
   H       -2.19330         3.68649        -7.35516
   H       -2.09447         4.22356        -8.99586
   H       -4.22524         3.03121        -8.56094
   H       -4.51978         4.69918        -9.06667
   H       -4.68257         4.25041        -7.37071
   H       -2.08881         7.35696       -10.48371
   H       -2.46345         5.68465       -10.21400
   H        0.34688         6.86275        -9.93505
   H       -0.24484         5.93648       -11.31866
   H       -0.07945         5.16691        -9.73740
   H       -0.55619        11.26406        -7.96886
   H       -0.88606         8.77417       -10.72250
   H        1.13612        10.64687        -9.40650
   H        4.29186        12.19805       -13.86847
   H        2.98607        10.50737       -16.06943
   H        5.31201        12.52115       -16.13204
   H        6.92604        12.63880       -21.18668
   H        2.48666        10.31908       -21.33126
   H        7.06643        11.99446       -23.90978
*
