# ORCA input file
# SCF done       -155.672384026136          0.000368445533
! CAM-B3LYP def2-SVP def2/J RIJCOSX Grid4 TightSCF
%maxcore 5000
%tddft
    Mode sTDDFT
    Ethresh 5.0
    maxcore 5000
end

%pal
  nprocs 6
  end
* xyz 0 1
   C       -3.13400         0.81517         3.26922
   C       -1.80634         0.60470         3.31466
   C       -0.76200         1.57400         3.40729
   C        0.49045         1.04370         3.43072
   C        0.52737        -0.36484         3.35829
   S       -1.09178        -1.01435         3.26060
   C        1.65611        -1.18123         3.35080
   C        2.99946        -0.79646         3.41761
   C        3.87928        -1.85669         3.37150
   C        3.26554        -3.10364         3.26849
   S        1.52859        -2.92148         3.23555
   C        3.90321        -4.35231         3.17859
   C        3.26281        -5.55004         3.07031
   C        3.90776        -6.79536         2.93399
   C        3.31118        -8.03947         2.79519
   C        4.21422        -9.08204         2.63596
   C        5.53729        -8.67302         2.64938
   S        5.64602        -6.95044         2.87787
   C        6.69854        -9.46147         2.46324
   C        6.77771       -10.80911         2.15934
   C        8.08106       -11.25785         1.97344
   C        9.04037       -10.27548         2.13879
   S        8.28759        -8.75545         2.54429
   C       10.43956       -10.39934         1.96074
   C       11.33391        -9.40921         2.19515
   C       12.71999        -9.48021         1.91550
   C       13.67106        -8.50883         2.16649
   C       14.94091        -8.82999         1.69680
   C       14.99818       -10.05812         1.06490
   S       13.44125       -10.83635         1.08992
   C       16.10127       -10.63930         0.38847
   C       17.35262       -10.09034         0.17937
   C       18.17333       -10.87592        -0.62426
   C       17.58252       -12.05254        -1.04509
   S       15.96567       -12.18233        -0.40514
   C       18.13038       -13.01713        -1.92545
   C       17.54489       -14.19395        -2.25225
   C       18.04658       -15.10061        -3.21769
   C       17.55287       -16.35349        -3.53173
   C       18.22684       -16.97890        -4.57567
   C       19.25191       -16.21446        -5.10389
   S       19.39186       -14.70201        -4.25305
   C       20.08163       -16.50831        -6.21316
   C       20.11570       -17.66376        -6.97570
   C       21.00318       -17.59724        -8.04177
   C       21.67816       -16.38975        -8.13650
   S       21.19503       -15.32557        -6.83912
   C       22.59820       -15.99799        -9.12955
   C       23.20777       -14.78051        -9.17904
   C       24.08257       -14.35381       -10.19205
   C       24.71740       -13.11611       -10.27823
   C       25.50047       -12.96036       -11.40187
   C       25.50330       -14.07973       -12.24092
   S       24.49655       -15.34307       -11.57053
   C       26.17174       -14.24261       -13.45220
   C       27.00346       -13.30696       -14.10285
   C       27.51607       -13.73952       -15.28630
   C       27.11572       -15.06106       -15.64936
   S       26.05379       -15.71177       -14.39076
   C       27.44972       -15.75841       -16.74991
   H       -3.53104         1.81407         3.30266
   H       -3.83284         0.00251         3.19773
   H       -0.98515         2.62493         3.45143
   H        1.39119         1.62796         3.49624
   H        3.30216         0.23200         3.49497
   H        4.94954        -1.75190         3.40786
   H        4.98630        -4.33614         3.18648
   H        2.18012        -5.56989         3.07032
   H        2.24317        -8.16726         2.80488
   H        3.92472       -10.10975         2.51097
   H        5.91030       -11.43651         2.06227
   H        8.33417       -12.27206         1.71922
   H       10.78912       -11.35505         1.59022
   H       10.98424        -8.46823         2.60214
   H       13.43455        -7.58867         2.67104
   H       15.79542        -8.18603         1.79928
   H       17.64831        -9.14023         0.58581
   H       19.17445       -10.60147        -0.90629
   H       19.08141       -12.75789        -2.37451
   H       16.61773       -14.47816        -1.77012
   H       16.71997       -16.79099        -3.01008
   H       17.97119       -17.95209        -4.95382
   H       19.50740       -18.52273        -6.75700
   H       21.15763       -18.39725        -8.74406
   H       22.80402       -16.72371        -9.90632
   H       23.00642       -14.06335        -8.39245
   H       24.59154       -12.35984        -9.52329
   H       26.05742       -12.06894       -11.62661
   H       27.20007       -12.33800       -13.67928
   H       28.16719       -13.16488       -15.92031
   H       28.09758       -15.33001       -17.49375
   H       27.08514       -16.75446       -16.91960
*
