# ORCA input file
# SCF done       -142.092086198151          0.000810908158
! CAM-B3LYP def2-SVP def2/J RIJCOSX Grid4 TightSCF
%maxcore 5000
%tddft
    Mode sTDDFT
    Ethresh 5.0
    maxcore 5000
end

%pal
  nprocs 6
  end
* xyz 0 1
   C       -2.08162        -3.90353         2.16506
   N       -1.37121        -4.91832         1.58314
   C       -0.08421        -4.49379         1.42697
   C        1.17893        -4.86138         0.96173
   C        2.00932        -3.76110         1.18827
   N        1.27360        -2.74764         1.77021
   C       -0.00494        -3.17825         1.92636
   C       -1.27908        -2.81143         2.39302
   C        3.39165        -3.66830         0.87562
   C        4.20475        -2.61941         1.14945
   C        5.58475        -2.53902         0.81164
   S        6.61078        -1.48484         1.74298
   C        7.99737        -2.01188         0.87155
   C        7.71567        -2.94202        -0.07603
   C        8.75971        -3.50504        -0.98301
   C        6.31753        -3.24710        -0.13796
   C        5.68215        -4.06675        -1.13030
   C        6.17987        -5.19097        -1.69668
   C        5.47707        -5.92183        -2.68633
   C        5.89647        -7.11238        -3.18962
   C        5.20221        -7.86068        -4.15978
   S        3.72142        -7.31138        -4.92719
   C        3.55301        -8.75495        -5.90926
   C        4.61615        -9.62079        -5.63066
   C        5.52216        -9.10838        -4.66754
   S        6.79763       -10.25024        -4.39923
   C        6.00891       -11.29204        -5.58447
   N        4.93722       -10.84879        -6.11110
   C        2.49204        -8.91458        -6.80302
   C        2.31927       -10.05175        -7.55853
   C        1.28241       -10.23438        -8.46732
   C        1.10145       -11.39780        -9.19338
   C        0.10070       -11.67112       -10.14800
   C        0.17465       -12.92311       -10.69365
   C        1.23676       -13.69605       -10.18693
   S        2.14995       -12.78932        -9.00679
   C        1.58943       -15.00231       -10.49814
   C        0.99951       -15.89030       -11.41724
   C        1.60014       -17.11524       -11.45771
   C        2.69602       -17.25769       -10.57002
   S        2.93782       -15.76333        -9.68912
   C        3.43792       -18.40394       -10.40568
   C        4.52537       -18.61141        -9.53846
   S        5.22610       -20.22102        -9.39221
   C        6.40375       -19.75330        -8.22574
   C        6.28568       -18.41344        -7.94649
   C        5.23680       -17.78075        -8.68710
   O        5.18103       -16.46564        -8.39433
   C        6.15700       -16.24996        -7.47648
   N        6.30599       -14.93296        -7.00411
   O        7.15693       -14.74294        -6.14656
   O        5.59417       -14.06918        -7.47529
   C        6.86460       -17.38105        -7.15864
   H       -3.12530        -4.02342         2.38196
   H       -1.74231        -5.81676         1.32869
   H        1.48338        -5.78834         0.51789
   H        1.64175        -1.85184         2.03595
   H       -1.58145        -1.88405         2.83628
   H        3.80586        -4.54753         0.40418
   H        3.82889        -1.78147         1.72306
   H        8.95358        -1.58957         1.11098
   H        9.64346        -2.87116        -0.97326
   H        8.38166        -3.57475        -2.00107
   H        9.05610        -4.50193        -0.65762
   H        4.69592        -3.73554        -1.43606
   H        7.12224        -5.60061        -1.36426
   H        4.54348        -5.50738        -3.04770
   H        6.81756        -7.55718        -2.83339
   H        6.44218       -12.24342        -5.81979
   H        1.78600        -8.09849        -6.88607
   H        3.03651       -10.85310        -7.43615
   H        0.57167        -9.43258        -8.62510
   H       -0.64473       -10.93985       -10.40830
   H       -0.50530       -13.30229       -11.43562
   H        0.15575       -15.61054       -12.02265
   H        1.29021       -17.92383       -12.09601
   H        3.14401       -19.26122       -10.99643
   H        7.08887       -20.47484        -7.83439
   H        7.67682       -17.44377        -6.46490
*
