# ORCA input file
# SCF done       -222.109106179762          0.000380152784
! CAM-B3LYP def2-SVP def2/J RIJCOSX Grid4 TightSCF
%maxcore 5000
%tddft
    Mode sTDDFT
    Ethresh 5.0
    maxcore 5000
end

%pal
  nprocs 6
  end
* xyz 0 1
   C      -10.99397        -8.83196        -2.41482
   S      -10.85083        -7.14183        -2.73185
   C      -10.44297        -9.22176        -1.22956
   C       -9.88518        -8.13699        -0.52583
   C       -9.13869        -7.87254         0.70544
   C       -8.72814        -8.77588         1.62390
   C       -7.86993        -8.39867         2.80124
   N       -8.64851        -8.21994         4.01894
   C       -9.18680       -10.21061         1.54448
   N       -8.98741       -10.93922         2.78805
   C      -10.03125        -6.94045        -1.23897
   C       -9.44149        -5.89337        -0.50379
   S       -9.25692        -4.20214        -0.64698
   C       -8.90111        -6.42367         0.68508
   C       -8.38230        -5.42090         1.49800
   C       -8.47562        -4.15667         0.92680
   C       -7.97460        -2.96493         1.48700
   C       -7.97367        -1.75076         0.87229
   C       -7.42680        -0.55712         1.39675
   N       -7.83646         0.61075         0.90057
   C       -7.27688         1.56196         1.66121
   C       -6.44216         0.97173         2.71579
   C       -5.82443         2.01693         3.54001
   O       -5.08559         1.88698         4.49726
   C       -6.32753         3.25187         2.91839
   C       -7.21078         2.93522         1.78269
   N       -7.65640         4.06713         1.19190
   C       -7.10611         5.04895         1.87284
   C       -6.25983         4.61211         2.95409
   C       -6.47558        -0.38394         2.52693
   C       -5.70070        -1.34606         3.24603
   C       -5.22343        -2.50190         2.73979
   C       -4.45306        -3.49057         3.45181
   C       -3.99753        -3.30352         4.73755
   C       -3.26614        -4.31468         5.38890
   C       -2.69853        -4.36490         6.65507
   C       -2.70568        -3.32905         7.72808
   C       -2.29974        -1.93103         7.22155
   N       -1.59333        -1.23145         8.28014
   C       -4.08233        -3.29176         8.41979
   N       -4.04526        -2.40359         9.57026
   C       -2.06359        -5.65740         6.77226
   C       -1.36748        -6.21813         7.77841
   C       -0.71886        -7.54857         7.63371
   C       -1.04334        -8.26741         6.35764
   C       -1.75204        -7.69578         5.36514
   C       -2.27272        -6.38957         5.51441
   C       -3.00631        -5.56574         4.68498
   C       -3.49043        -5.73520         3.36674
   C       -4.18195        -4.72914         2.77698
   C        0.78427        -7.40541         7.62316
   C        1.40613        -6.27655         7.25898
   C        2.82773        -6.12880         7.23909
   N        3.65982        -7.11884         7.50851
   C        4.90170        -6.58524         7.43166
   C        4.85309        -5.15915         7.10130
   C        6.20455        -4.59818         7.03772
   O        6.54316        -3.45435         6.80434
   C        7.05525        -5.76901         7.33700
   C        6.21898        -6.95848         7.57188
   N        6.98950        -8.04004         7.84985
   C        8.22453        -7.59967         7.80119
   C        8.33801        -6.19244         7.48594
   C        3.51968        -4.84542         6.96495
   C        2.86421        -3.63044         6.66695
   C        3.48185        -2.43022         6.50211
   C        2.76684        -1.24186         6.24283
   S        1.01982        -1.27811         6.02632
   C        3.27068         0.04911         6.15475
   C        2.28005         1.00513         5.94104
   C        2.13956         2.45675         5.77216
   C        3.11401         3.39214         5.80028
   C        2.79183         4.84603         5.56275
   N        3.97761         5.68132         5.47751
   C        4.56119         3.02778         6.01199
   N        5.20381         2.49985         4.81352
   C        1.00237         0.41776         5.84555
   C        0.04621         1.42539         5.62892
   S       -1.65372         1.55264         5.44530
   C        0.70144         2.66732         5.58138
   C       -0.20419         3.71785         5.40918
   C       -1.51411         3.28913         5.31553
   C       -2.71295         4.06086         5.14582
   C       -2.76349         5.39095         5.08158
   H      -11.48791        -9.45029        -3.13817
   H      -10.45324       -10.24630        -0.90892
   H       -7.31965        -7.48088         2.59659
   H       -7.13720        -9.18552         2.99529
   H       -9.37486        -7.52701         3.86585
   H       -9.10098        -9.10039         4.24862
   H       -8.68088       -10.68174         0.68145
   H      -10.26131       -10.21830         1.33773
   H       -8.00650       -11.14954         2.93747
   H       -9.48575       -11.82092         2.75609
   H       -7.94720        -5.54926         2.47264
   H       -7.56820        -3.06291         2.48447
   H       -8.47815        -1.63651        -0.07925
   H       -7.30668         6.07203         1.60533
   H       -5.71606         5.25194         3.62060
   H       -5.43323        -1.03546         4.24741
   H       -5.42798        -2.73582         1.70212
   H       -4.18307        -2.37562         5.25149
   H       -1.96140        -3.60399         8.48283
   H       -3.19085        -1.38637         6.87755
   H       -1.61779        -2.03612         6.37248
   H       -2.23643        -1.09306         9.05469
   H       -1.29939        -0.31717         7.95287
   H       -4.37272        -4.32557         8.67818
   H       -4.82711        -2.90482         7.71949
   H       -3.44841        -2.79422        10.29273
   H       -4.97383        -2.29043         9.96151
   H       -1.19645        -5.70334         8.71440
   H       -0.99120        -8.17872         8.49157
   H       -0.63413        -9.26039         6.25680
   H       -1.94468        -8.23523         4.44885
   H       -3.30144        -6.66191         2.84461
   H       -4.55774        -4.84537         1.76957
   H        1.36865        -8.27698         7.87816
   H        0.82266        -5.40815         6.98771
   H        9.04698        -8.26828         7.98863
   H        9.25540        -5.64392         7.39932
   H        1.78504        -3.65786         6.58183
   H        4.55812        -2.35615         6.58920
   H        4.32470         0.23080         6.25823
   H        2.20318         5.20116         6.41653
   H        2.15141         4.92094         4.66651
   H        4.48163         5.50903         4.61430
   H        3.71988         6.66048         5.49534
   H        4.64478         2.27557         6.79835
   H        5.11001         3.91858         6.32134
   H        4.71159         1.67703         4.48112
   H        5.18541         3.18959         4.07001
   H        0.04791         4.75957         5.35873
   H       -3.62168         3.47809         5.07177
   H       -1.88518         6.01018         5.15261
   H       -3.69798         5.90966         4.96248
*
