# ORCA input file
# SCF done       -212.739841347452          0.000871545490
! CAM-B3LYP def2-SVP def2/J RIJCOSX Grid4 TightSCF
%maxcore 5000
%tddft
    Mode sTDDFT
    Ethresh 5.0
    maxcore 5000
end

%pal
  nprocs 6
  end
* xyz 0 1
   C        5.26694       -10.26557        -7.54478
   C        5.72385        -9.79755        -6.32098
   C        5.12222       -10.22623        -5.07818
   N        5.59794        -9.77150        -3.91266
   C        6.59122        -8.91556        -3.91185
   C        7.17657        -8.47331        -5.14801
   N        6.74963        -8.91657        -6.29941
   C        8.24558        -7.54107        -5.11269
   N        9.10623        -6.78902        -5.03750
   C        7.07972        -8.43371        -2.67481
   N        7.49026        -8.02447        -1.68602
   C        4.05178       -11.15157        -5.04877
   C        3.54508       -11.54776        -6.30084
   C        4.17170       -11.12166        -7.53710
   N        3.53156       -11.60663        -8.60832
   S        2.27396       -12.46263        -8.11243
   N        2.45310       -12.27934        -6.53067
   C        3.52986       -11.61953        -3.80322
   S        3.48960       -10.54280        -2.44104
   C        2.72532       -11.74935        -1.45107
   C        2.58240       -12.94688        -2.14537
   C        3.04700       -12.87698        -3.46605
   C        3.11242       -14.08669        -4.36533
   O        4.25561       -14.09428        -5.20569
   C        5.50614       -14.14437        -4.56044
   C        2.96362       -15.36458        -3.53031
   C        1.74399       -15.24263        -2.62652
   C        2.00606       -14.19376        -1.54877
   C        2.34050       -11.47659        -0.11226
   C        2.57523       -10.29510         0.50460
   C        2.17023        -9.90410         1.82514
   C        1.45172       -10.72076         2.67551
   C        1.03466       -10.24485         3.93137
   C        0.28320       -10.84862         4.93436
   C       -0.23178       -12.24884         4.93488
   C        0.34626       -13.05269         6.11569
   N        0.30791       -14.46775         5.80034
   C       -1.77057       -12.27317         4.91063
   N       -2.26537       -13.62328         4.68103
   C        0.10685        -9.86346         5.97394
   C       -0.57972        -9.88520         7.13295
   C       -0.65902        -8.69587         8.02466
   C        0.15708        -7.52339         7.57735
   C        0.83676        -7.51166         6.41639
   C        0.81957        -8.64224         5.56568
   C        1.37370        -8.88452         4.32557
   C        2.13939        -8.07795         3.45213
   C        2.51803        -8.57623         2.24977
   C       -0.27237        -9.08701         9.42749
   C       -1.04442        -8.83205        10.48507
   C       -0.75690        -9.12669        11.86252
   S       -1.57926        -8.14768        13.03885
   C       -0.76565        -8.94875        14.35346
   C        0.07954        -9.94203        13.87421
   C        0.07271       -10.05441        12.47127
   C        0.87446       -11.11630        11.75321
   O        0.22227       -11.65810        10.61705
   C       -1.00669       -12.30326        10.84930
   C        1.32755       -12.19674        12.74463
   C        1.97582       -11.55139        13.96135
   C        0.91443       -10.80679        14.76575
   C       -0.99123        -8.58285        15.70020
   C       -1.84509        -7.59809        16.08117
   C       -2.09551        -7.19280        17.41943
   C       -3.01611        -6.13872        17.66397
   C       -3.31096        -5.67585        19.00009
   N       -4.19279        -4.66669        19.18717
   C       -4.76278        -4.13033        18.14280
   C       -4.47108        -4.59275        16.81305
   N       -3.61903        -5.56914        16.61078
   C       -5.10773        -3.99385        15.69984
   N       -5.63965        -3.49103        14.81766
   C       -5.68894        -3.07008        18.32087
   N       -6.44211        -2.21299        18.41931
   C       -2.70693        -6.24392        20.11361
   C       -1.80295        -7.27772        19.89855
   C       -1.49100        -7.75702        18.56577
   N       -0.59955        -8.75077        18.60199
   S       -0.20206        -9.04560        20.13181
   N       -1.12349        -7.94612        20.83893
   H        5.73026        -9.94593        -8.46221
   H        2.28271       -14.03237        -5.08228
   H        5.73116       -15.14959        -4.18769
   H        5.56936       -13.43129        -3.73196
   H        6.24430       -13.87761        -5.31609
   H        3.85272       -15.51125        -2.91393
   H        2.86978       -16.21611        -4.20561
   H        0.87814       -14.95010        -3.22416
   H        1.52380       -16.20312        -2.15797
   H        2.71049       -14.59313        -0.81125
   H        1.07870       -13.95894        -1.02080
   H        1.82933       -12.27657         0.40395
   H        3.11403        -9.54221        -0.05890
   H        1.19301       -11.72594         2.37971
   H        0.12051       -12.74853         4.02690
   H       -0.19713       -12.79216         7.03817
   H        1.39423       -12.76762         6.25781
   H       -0.65711       -14.73851         5.63093
   H        0.66635       -15.01295         6.57660
   H       -2.11309       -11.55376         4.14637
   H       -2.16417       -11.94119         5.87453
   H       -1.96245       -13.95179         3.76905
   H       -3.28010       -13.63110         4.69007
   H       -1.10709       -10.76237         7.47727
   H       -1.71427        -8.37839         8.05028
   H        0.15938        -6.67257         8.24133
   H        1.39937        -6.63974         6.11574
   H        2.40780        -7.07493         3.74904
   H        3.09884        -7.97026         1.56986
   H        0.68226        -9.57638         9.52141
   H       -1.97454        -8.29329        10.33975
   H        1.77186       -10.64515        11.32576
   H       -0.87301       -13.28461        11.31673
   H       -1.46026       -12.44239         9.86925
   H       -1.67457       -11.69684        11.46894
   H        2.02292       -12.86534        12.23546
   H        0.46540       -12.78189        13.06990
   H        2.44511       -12.31210        14.58659
   H        2.75156       -10.85487        13.63644
   H        1.38450       -10.19735        15.54009
   H        0.26324       -11.52858        15.27007
   H       -0.44600        -9.12705        16.45776
   H       -2.39800        -7.05135        15.32802
   H       -2.93641        -5.88890        21.10336
*
