# ORCA input file
# SCF done       -217.953614440882          0.000542458072
! CAM-B3LYP def2-SVP def2/J RIJCOSX Grid4 TightSCF
%maxcore 5000
%tddft
    Mode sTDDFT
    Ethresh 5.0
    maxcore 5000
end

%pal
  nprocs 6
  end
* xyz 0 1
   C        1.55808        -9.42171        -4.35492
   C        0.93470       -10.31180        -5.39284
   O        1.16117       -11.48952        -5.54004
   C        0.06410        -9.42607        -6.17915
   C        0.03698        -8.15736        -5.59619
   C        0.80769        -8.17379        -4.36086
   C        0.68457        -7.28625        -3.32964
   C        1.22635        -7.53903        -2.05675
   N        1.62674        -7.76256        -1.00363
   C       -0.04679        -6.08110        -3.37974
   N       -0.60933        -5.08156        -3.35325
   C       -0.69529        -7.11714        -6.18423
   C       -1.39503        -7.37383        -7.33384
   C       -1.40678        -8.65115        -7.93756
   C       -0.65625        -9.71401        -7.35574
   C       -0.66655       -10.98551        -7.96407
   C       -1.39607       -11.19692        -9.10164
   C       -2.13964       -10.15445        -9.67753
   C       -2.14465        -8.90947        -9.11044
   C        2.71817        -9.80027        -3.79959
   C        3.70557        -8.99983        -3.03213
   O        4.92076        -9.73572        -3.02003
   C        5.78217        -9.46749        -1.99324
   C        6.63978       -10.40329        -1.50204
   S        7.59476        -9.78305        -0.21785
   C        6.84905        -8.24406        -0.33940
   C        5.90649        -8.21118        -1.32142
   O        5.16732        -7.09347        -1.59660
   C        5.01481        -6.77451        -2.96774
   C        3.94805        -7.61070        -3.67342
   O        3.37629        -7.23192        -4.65750
   C        4.66065        -5.31029        -3.07914
   C        5.40578        -4.47154        -3.84982
   C        5.04685        -3.10141        -3.94037
   C        5.62355        -2.03628        -4.61056
   C        6.85713        -1.97181        -5.44945
   C        8.10610        -1.77933        -4.56134
   N        8.33401        -2.94656        -3.73057
   C        7.04238        -3.18540        -6.39148
   N        7.79608        -2.90044        -7.59471
   C        4.81961        -0.87033        -4.30704
   C        4.94381         0.41529        -4.68105
   C        3.99151         1.46230        -4.21481
   C        2.90092         0.96244        -3.32590
   C        2.78626        -0.33032        -2.96532
   C        3.72338        -1.28494        -3.42240
   C        3.87064        -2.64272        -3.20809
   C        3.12637        -3.55279        -2.42483
   C        3.51985        -4.85124        -2.35814
   C        3.39878         2.14403        -5.42564
   C        3.87077         3.25578        -5.96160
   C        3.26300         3.92010        -7.17481
   O        2.14299         3.18804        -7.60522
   C        1.56894         3.61636        -8.77897
   C        1.35178         2.77297        -9.82644
   S        0.56506         3.55434       -11.13021
   C        0.53121         5.04409       -10.27866
   C        1.08993         4.93885        -9.04099
   O        1.16008         6.01304        -8.20370
   C        1.46603         5.75186        -6.83942
   C        2.95814         5.35999        -6.76958
   O        3.82827         6.12688        -6.45663
   C        1.19062         7.00869        -6.09231
   C        1.70504         7.40612        -4.92055
   C        1.65227         8.85977        -4.54324
   O        0.86261         9.67294        -4.96009
   C        2.78905         9.04666        -3.62918
   C        3.36986         7.80799        -3.33934
   C        2.61079         6.75491        -3.98802
   C        2.62254         5.42217        -3.67208
   C        1.61343         4.54354        -4.10563
   N        0.76094         3.83214        -4.39955
   C        3.58376         4.79101        -2.86276
   N        4.36632         4.18940        -2.27441
   C        4.48940         7.72224        -2.49961
   C        5.00404         8.87531        -1.96993
   C        4.43784        10.14267        -2.23660
   C        3.29901        10.24365        -3.08835
   C        2.73983        11.51041        -3.35199
   C        3.28600        12.63272        -2.79198
   C        4.40618        12.53884        -1.95113
   C        4.97032        11.32208        -1.67916
   H       -0.69728        -6.13128        -5.74859
   H       -1.96263        -6.58287        -7.80259
   H       -0.09138       -11.77872        -7.51343
   H       -1.40495       -12.17146        -9.56638
   H       -2.70872       -10.34397       -10.57562
   H       -2.71561        -8.10572        -9.55235
   H        3.06416       -10.79866        -4.04313
   H        3.36345        -8.81485        -1.99984
   H        6.75445       -11.41500        -1.83081
   H        7.12511        -7.44681         0.31895
   H        5.95593        -6.96529        -3.51288
   H        6.27073        -4.83400        -4.38095
   H        6.77728        -1.07565        -6.07962
   H        7.97662        -0.84756        -3.98256
   H        8.98554        -1.65477        -5.20226
   H        7.55310        -3.07616        -3.09526
   H        9.17257        -2.82447        -3.17410
   H        6.06202        -3.55983        -6.69617
   H        7.57506        -3.97127        -5.85529
   H        7.35095        -2.16406        -8.13283
   H        8.73562        -2.59743        -7.36312
   H        5.73308         0.75466        -5.33890
   H        4.57576         2.21342        -3.65926
   H        2.19155         1.70394        -2.99291
   H        1.98198        -0.65291        -2.32098
   H        2.25775        -3.20824        -1.88466
   H        2.98761        -5.55921        -1.74227
   H        2.54589         1.65029        -5.86604
   H        4.72355         3.78431        -5.55780
   H        4.02779         3.96640        -7.97221
   H        1.59784         1.73232        -9.87660
   H        0.10093         5.91774       -10.72141
   H        0.86050         4.90903        -6.46856
   H        0.60696         7.73312        -6.64739
   H        4.94308         6.76795        -2.28502
   H        5.86969         8.82925        -1.32486
   H        1.87993        11.57094        -4.00004
   H        2.85715        13.60265        -2.99446
   H        4.82118        13.43764        -1.51971
   H        5.83247        11.24776        -1.03227
*
