# ORCA input file
# SCF done       -189.343283131285          0.000892705175
! CAM-B3LYP def2-SVP def2/J RIJCOSX Grid4 TightSCF
%maxcore 5000
%tddft
    Mode sTDDFT
    Ethresh 5.0
    maxcore 5000
end

%pal
  nprocs 6
  end
* xyz 0 1
   C       -8.21710       -11.26584        10.57939
   S       -7.21832        -9.88726        10.63381
   C       -6.20216       -10.48030         9.34327
   C       -6.66543       -11.73247         8.90315
   C       -7.82091       -12.17430         9.61931
   C       -8.40462       -13.42147         9.29331
   C       -7.86942       -14.19539         8.30839
   C       -8.45070       -15.52020         7.93318
   C       -6.70873       -13.74303         7.59669
   O       -6.26657       -14.59611         6.64303
   C       -5.12887       -14.23877         5.89193
   C       -6.12114       -12.53547         7.88925
   C       -5.09520        -9.77927         8.85109
   C       -4.63983        -8.57400         9.29874
   C       -3.51017        -7.92067         8.77008
   C       -3.03201        -6.63304         9.28602
   N       -1.97113        -6.16953         8.69856
   C       -1.65857        -7.09549         7.74277
   C       -2.60674        -8.21519         7.75380
   C       -2.22889        -9.16385         6.74417
   S       -2.91695       -10.62969         6.40636
   C       -1.06344        -8.59170         6.10270
   C       -0.72555        -7.32637         6.76580
   N        0.40166        -6.77714         6.22896
   C        0.78491        -7.61588         5.31122
   C       -0.08014        -8.78886         5.15519
   C        0.12996        -9.80395         4.15789
   C        1.40267       -10.04599         3.68066
   C        1.61550       -11.01413         2.68272
   C        2.77208       -11.43918         2.03399
   C        4.18396       -11.00824         2.24941
   C        4.37554        -9.52062         1.91047
   N        4.02945        -9.29517         0.51806
   C        4.65134       -11.33102         3.67955
   N        4.66603       -12.77304         3.85295
   C        2.36225       -12.41802         1.05801
   C        3.06824       -13.09415         0.13281
   C        2.40926       -14.03010        -0.82121
   C        0.94010       -14.19948        -0.61333
   C        0.24788       -13.51538         0.31760
   C        0.90852       -12.59390         1.16361
   C        0.46583       -11.73793         2.15372
   C       -0.82374       -11.47489         2.66811
   C       -0.98190       -10.54006         3.63903
   C        3.12831       -15.35525        -0.77087
   C        4.09341       -15.68660        -1.63352
   C        4.83879       -16.90698        -1.62514
   C        4.63522       -18.10601        -0.81019
   N        5.49346       -19.06126        -1.03645
   C        6.32451       -18.58236        -2.00893
   C        5.92401       -17.22969        -2.40462
   C        6.84509       -16.70260        -3.38391
   S        6.88064       -15.14976        -3.93977
   C        7.76179       -17.78263        -3.62815
   C        7.44355       -18.90811        -2.73447
   N        8.38071       -19.89567        -2.84107
   C        9.25659       -19.45214        -3.69116
   C        8.94294       -18.13693        -4.25865
   C        9.73868       -17.48841        -5.22600
   S       11.45351       -17.76724        -5.26238
   C       11.70602       -16.59964        -6.51330
   C       10.48835       -16.04438        -6.92802
   C        9.37007       -16.56603        -6.21366
   C        8.06831       -16.20142        -6.60329
   C        7.87399       -15.27567        -7.58883
   C        6.50783       -14.84769        -8.01147
   C        9.00200       -14.68950        -8.24386
   O        8.68407       -13.76481        -9.18650
   C        9.72282       -13.12229        -9.88246
   C       10.28046       -15.08432        -7.93829
   C       13.01398       -16.29939        -7.00212
   C       14.13970       -16.88752        -6.59075
   H       -9.04778       -11.34569        11.25280
   H       -9.27745       -13.75028         9.83721
   H       -9.32392       -15.74604         8.53874
   H       -7.70755       -16.30453         8.06714
   H       -8.73259       -15.51889         6.88163
   H       -4.96323       -15.06277         5.20004
   H       -4.24838       -14.11539         6.52896
   H       -5.29325       -13.31621         5.32794
   H       -5.24938       -12.19362         7.35772
   H       -4.55759       -10.25398         8.04140
   H       -5.15702        -8.07501        10.10952
   H       -3.49893        -6.08833        10.08932
   H        1.65179        -7.39926         4.71138
   H        2.23936        -9.50354         4.09294
   H        4.82421       -11.58775         1.57721
   H        5.41366        -9.23576         2.15702
   H        3.70581        -8.90734         2.51598
   H        4.66833        -9.79738        -0.08965
   H        4.09514        -8.30949         0.29079
   H        4.01074       -10.80964         4.40730
   H        5.67612       -10.97155         3.81258
   H        3.72495       -13.14191         3.75616
   H        5.00536       -13.01815         4.77621
   H        4.13956       -12.99184         0.03286
   H        2.56974       -13.61430        -1.82903
   H        0.45221       -14.90871        -1.26503
   H       -0.81772       -13.65682         0.42663
   H       -1.67410       -12.01295         2.27586
   H       -1.96204       -10.31991         4.02920
   H        2.83847       -16.01227         0.03567
   H        4.38042       -14.99137        -2.41378
   H        3.85393       -18.24331        -0.08360
   H       10.11691       -20.04072        -3.96134
   H        7.22361       -16.67523        -6.13192
   H        5.74664       -15.38245        -7.45100
   H        6.36879       -15.02491        -9.07678
   H        6.38902       -13.77874        -7.84168
   H        9.23589       -12.41283       -10.54956
   H       10.30867       -13.83183       -10.47595
   H       10.38764       -12.58110        -9.20168
   H       11.13185       -14.68133        -8.46147
   H       13.05858       -15.53221        -7.76341
   H       14.12943       -17.65628        -5.83620
   H       15.09751       -16.61757        -6.99743
*
