# ORCA input file
# SCF done       -240.510975783288          0.000894851755
! CAM-B3LYP def2-SVP def2/J RIJCOSX Grid4 TightSCF
%maxcore 5000
%tddft
    Mode sTDDFT
    Ethresh 5.0
    maxcore 5000
end

%pal
  nprocs 6
  end
* xyz 0 1
   C       -1.97658         4.50792         6.99907
   C       -2.33547         4.12625         8.26808
   C       -1.55950         4.37321         9.41805
   N       -0.96958         4.53713        10.39004
   C       -3.53100         3.46130         8.61041
   N       -4.48538         2.94463         8.98773
   C       -0.79318         5.28446         6.64898
   C       -0.82063         5.54826         5.25758
   C        0.16807         6.25983         4.62261
   C        1.22322         6.75147         5.39779
   C        1.23899         6.48603         6.78676
   C        0.24696         5.75379         7.42832
   S        2.63776         7.18309         7.54393
   C        3.17608         7.81225         6.02493
   C        2.35314         7.51830         4.99504
   C       -2.02030         4.92495         4.65981
   O       -2.26310         4.85067         3.47254
   C       -2.74494         4.29818         5.79176
   C       -3.85490         3.50999         5.66905
   C       -4.76470         3.53488         4.58278
   C       -5.53176         2.40035         4.25672
   N       -5.47713         1.22127         4.87630
   S       -6.53172         0.22590         4.18870
   N       -7.09231         1.21730         3.06205
   C       -6.47927         2.40259         3.16658
   C       -6.70437         3.54513         2.36650
   C       -5.97585         4.70231         2.74340
   C       -5.06847         4.70829         3.85260
   N       -4.56165         5.87747         4.27757
   C       -4.73629         6.96980         3.58917
   C       -4.15653         8.22028         4.17667
   C       -2.80056         8.53265         3.53911
   C       -5.45018         6.91947         2.35270
   C       -5.56752         8.07757         1.40607
   C       -4.80043         7.77442         0.11722
   N       -6.08269         5.83089         2.01081
   C       -7.63226         3.50932         1.25332
   C       -8.31733         4.64433         0.87020
   C       -9.28669         4.58495        -0.14597
   C      -10.10382         5.57069        -0.69110
   C      -10.04878         7.04318        -0.46498
   C      -10.28707         7.42784         1.00767
   N      -10.82926         8.77367         1.06709
   C       -8.69677         7.56671        -0.98800
   N       -8.60577         9.01511        -0.86257
   C      -10.97534         4.91167        -1.63238
   C      -12.00390         5.37956        -2.36396
   C      -12.82732         4.48107        -3.21274
   C      -12.35033         3.05942        -3.26624
   C      -11.31150         2.61177        -2.53734
   C      -10.61288         3.48772        -1.67340
   C       -9.58563         3.30320        -0.76988
   C       -8.83546         2.16579        -0.39327
   C       -7.89086         2.27157         0.57461
   C      -12.99607         4.97139        -4.62588
   C      -12.17940         5.85035        -5.21809
   C      -12.30735         6.35501        -6.55884
   C      -11.34116         7.27446        -7.01513
   N      -10.33902         7.77259        -6.28250
   S       -9.48315         8.78188        -7.18231
   N      -10.32226         8.65650        -8.54673
   C      -11.32432         7.79271        -8.36210
   C      -12.30293         7.41433        -9.30121
   C      -13.32884         6.56914        -8.81056
   C      -13.32118         6.02595        -7.48725
   N      -14.30137         5.16303        -7.13580
   C      -15.22784         4.83033        -7.98997
   C      -16.22276         3.80800        -7.53086
   C      -15.74773         2.40474        -7.91783
   C      -15.26284         5.42087        -9.29327
   C      -16.37310         5.15015       -10.26186
   C      -16.17871         5.86866       -11.59009
   N      -14.33010         6.25446        -9.65700
   C      -12.37731         7.86881       -10.64604
   C      -11.42059         8.37828       -11.46777
   C       -9.97896         8.41661       -11.39855
   C       -9.17362         7.50933       -10.75862
   C       -7.76788         7.57984       -10.73371
   N       -6.62245         7.60598       -10.65387
   C       -9.66111         6.36292       -10.10263
   N      -10.00789         5.40099        -9.57931
   C       -9.52511         9.45056       -12.32115
   C      -10.62930         9.87850       -13.10280
   C      -11.84274         9.16559       -12.65995
   O      -12.95620         9.23197       -13.12995
   C      -10.50865        10.82432       -14.09175
   C       -9.24513        11.38144       -14.31303
   C       -8.15318        10.95597       -13.51984
   C       -8.27131         9.99207       -12.52484
   S       -6.69499        11.78777       -13.96155
   C       -7.54066        12.67364       -15.18383
   C       -8.85437        12.37012       -15.26029
   H        0.13162         6.43334         3.55776
   H        0.30987         5.56823         8.48754
   H        4.09071         8.37209         5.99804
   H        2.52663         7.82508         3.97931
   H       -4.08772         2.79032         6.44396
   H       -4.01631         8.04821         5.24518
   H       -4.83942         9.06164         4.04385
   H       -2.33091         9.37005         4.04971
   H       -2.90893         8.78373         2.48700
   H       -2.15112         7.66560         3.61930
   H       -5.18579         8.99028         1.86078
   H       -6.62224         8.22867         1.16489
   H       -3.74604         7.60987         0.32979
   H       -4.88884         8.60432        -0.58035
   H       -5.19793         6.87614        -0.34863
   H       -8.13866         5.57000         1.38760
   H      -10.84648         7.52530        -1.03891
   H       -9.35058         7.31413         1.57475
   H      -11.02761         6.74610         1.43860
   H      -10.13814         9.41479         0.68741
   H      -11.01184         9.03745         2.02949
   H       -8.57627         7.21879        -2.02826
   H       -7.89160         7.12396        -0.39797
   H       -9.27478         9.45570        -1.48749
   H       -7.68014         9.32669        -1.13843
   H      -12.30125         6.41905        -2.33590
   H      -13.83724         4.47482        -2.76589
   H      -12.89351         2.40446        -3.92967
   H      -11.00591         1.57709        -2.59388
   H       -9.01774         1.22149        -0.88475
   H       -7.31096         1.40855         0.85553
   H      -13.81512         4.54449        -5.18322
   H      -11.33327         6.25706        -4.67865
   H      -16.30367         3.86946        -6.44456
   H      -17.20230         4.00194        -7.96841
   H      -16.46127         1.66016        -7.57398
   H      -14.78131         2.19968        -7.46369
   H      -15.64372         2.31197        -8.99642
   H      -17.31594         5.46620        -9.80389
   H      -16.44071         4.07170       -10.42776
   H      -16.14313         6.94342       -11.43825
   H      -16.99846         5.63561       -12.26501
   H      -15.24394         5.56238       -12.05072
   H      -13.37884         7.84499       -11.06553
   H      -11.36345        11.12566       -14.67727
   H       -7.41317         9.70154       -11.94147
   H       -6.99208        13.37975       -15.77636
   H       -9.53711        12.82138       -15.95743
*
