# ORCA input file
# SCF done       -211.196513519151          0.000570280978
! CAM-B3LYP def2-SVP def2/J RIJCOSX Grid4 TightSCF
%maxcore 5000
%tddft
    Mode sTDDFT
    Ethresh 5.0
    maxcore 5000
end

%pal
  nprocs 6
  end
* xyz 0 1
   C       12.71344        -0.14650       -13.98462
   C       12.75040        -0.86920       -15.14501
   F       13.82718        -0.78376       -15.94356
   C       11.69896        -1.70757       -15.54251
   C       10.59525        -1.80919       -14.74287
   C       10.50463        -1.08737       -13.53414
   C       11.58401        -0.23793       -13.14878
   C       11.51328         0.50276       -11.94579
   C       10.40283         0.39151       -11.15467
   C        9.33464        -0.47477       -11.53372
   C        9.37351        -1.19318       -12.69618
   C        8.29126        -0.44930       -10.49637
   O        7.20903        -0.98830       -10.50702
   C        8.88281         0.35052        -9.37598
   C       10.04281         1.04872        -9.90147
   C       10.53883         2.23893        -9.45333
   C        9.93078         3.00212        -8.42897
   N        9.39579         3.73743        -7.72783
   C       11.61666         2.91087       -10.06802
   N       12.49389         3.47983       -10.53990
   C        8.42576         0.17821        -8.10796
   C        9.09614         0.55732        -6.91268
   N       10.27599         1.16338        -6.89941
   C       10.52900         1.46636        -5.61229
   C        9.42226         1.03654        -4.74324
   C        9.69075         1.39815        -3.33933
   O        9.00348         1.19979        -2.36518
   C       11.01103         2.05763        -3.43108
   C       11.48572         2.06806        -4.83564
   N       12.70970         2.64386        -4.92328
   C       13.01615         2.98358        -3.69682
   C       12.00321         2.63752        -2.71279
   C        8.52900         0.39655        -5.55325
   C        7.30395        -0.26614        -5.21307
   C        6.92867        -1.44978        -5.72706
   C        5.68138        -2.10257        -5.42758
   S        5.66745        -3.78817        -5.02386
   C        4.40671        -1.56290        -5.46161
   C        4.14065        -0.20329        -6.02367
   C        3.98776        -0.28733        -7.55657
   N        5.22234        -0.78540        -8.14398
   C        3.41208        -2.49313        -5.09000
   C        1.94067        -2.25665        -5.22478
   C        1.31858        -3.20649        -6.26313
   N        1.97538        -3.04799        -7.54716
   C        3.95018        -3.73283        -4.76817
   C        3.27692        -4.91626        -4.35368
   N        3.53925        -6.09806        -4.89168
   C        2.67297        -6.96072        -4.32672
   C        1.82741        -6.29084        -3.32525
   C        0.87473        -7.24575        -2.73215
   O        0.02154        -7.03324        -1.89408
   C        1.20225        -8.49882        -3.42464
   C        2.30259        -8.28385        -4.38871
   N        2.61275        -9.43697        -5.02370
   C        1.79509       -10.33512        -4.52380
   C        0.89049        -9.81881        -3.52148
   C        2.23248        -4.97989        -3.30363
   C        1.89530        -3.92295        -2.41219
   C        0.85657        -4.02193        -1.54956
   C        0.47408        -3.00750        -0.63607
   C       -0.72373        -2.97267         0.00589
   C       -0.92913        -2.16723         1.24112
   O       -0.23467        -1.26278         1.64209
   C       -2.11643        -2.76313         1.88489
   C       -2.65318        -2.49063         3.11026
   C       -3.78394        -3.21729         3.54496
   C       -4.33753        -4.22197         2.69797
   C       -5.45800        -4.94962         3.14379
   C       -5.99031        -4.67622         4.37309
   C       -5.46208        -3.69125         5.21911
   C       -4.37408        -2.97596         4.80271
   F       -7.06034        -5.36990         4.80044
   C       -3.76677        -4.47804         1.42935
   C       -2.67618        -3.75591         1.02696
   C       -1.90590        -3.78184        -0.21211
   C       -2.32425        -4.28464        -1.41541
   C       -1.68164        -4.01038        -2.64221
   N       -1.23433        -3.74472        -3.66592
   C       -3.51621        -5.02099        -1.58047
   N       -4.47602        -5.62410        -1.75754
   H       13.53959         0.49127       -13.71190
   H       11.78472        -2.25304       -16.46883
   H        9.77333        -2.44840       -15.02799
   H       12.34496         1.13245       -11.67236
   H        8.55216        -1.83810       -12.97074
   H        7.47669        -0.34007        -7.99863
   H       13.94873         3.47807        -3.48693
   H       12.06937         2.82549        -1.65955
   H        6.71429         0.20550        -4.43806
   H        7.61394        -2.00440        -6.35565
   H        4.97396         0.46110        -5.80856
   H        3.23528         0.22446        -5.59534
   H        3.81290         0.72124        -7.93746
   H        3.11488        -0.91263        -7.79671
   H        5.27755        -1.79369        -8.04942
   H        5.27720        -0.57519        -9.13402
   H        1.76627        -1.23306        -5.55007
   H        1.41266        -2.41717        -4.28461
   H        0.26427        -2.94894        -6.37713
   H        1.37501        -4.23630        -5.87455
   H        2.89575        -3.47604        -7.52572
   H        1.44106        -3.49480        -8.28272
   H        1.83723       -11.35495        -4.86478
   H        0.15076       -10.38773        -2.99394
   H        2.50000        -3.02582        -2.44691
   H        0.27870        -4.93716        -1.54519
   H        1.19745        -2.24472        -0.36999
   H       -2.21865        -1.73081         3.74251
   H       -5.89243        -5.71347         2.51802
   H       -5.92418        -3.52027         6.17843
   H       -3.94881        -2.21271         5.43688
   H       -4.19718        -5.24986         0.81087
*
