# ORCA input file
# SCF done       -249.591230599064          0.000498860426
! CAM-B3LYP def2-SVP def2/J RIJCOSX Grid4 TightSCF
%maxcore 5000
%tddft
    Mode sTDDFT
    Ethresh 5.0
    maxcore 5000
end

%pal
  nprocs 6
  end
* xyz 0 1
   C      -12.34595       -12.82715        11.51290
   C      -11.58229       -12.50996        12.62742
   C      -10.73339       -11.41301        12.62673
   C      -10.63458       -10.58868        11.51521
   C      -11.39784       -10.89216        10.40140
   C      -12.24785       -12.02094        10.39068
   C      -12.87512       -12.12505         9.07792
   C      -13.82331       -13.04897         8.71837
   C      -14.35909       -14.01479         9.59615
   N      -14.84772       -14.82261        10.24940
   C      -14.42981       -13.16165         7.45085
   N      -14.96442       -13.32142         6.44631
   C      -12.27797       -11.09434         8.24305
   C      -11.51865       -10.21751         9.11843
   C      -11.18789        -8.90712         8.87822
   C      -11.55912        -8.19298         7.72390
   N      -11.87185        -7.55232         6.82305
   C      -10.50402        -8.08531         9.79648
   N       -9.93724        -7.36423        10.48667
   C      -12.39798       -11.04384         6.87051
   C      -11.57322       -10.40239         5.93993
   S      -12.21618       -10.01933         4.37552
   C      -10.78083        -9.20236         3.85796
   C       -9.76987        -9.31757         4.83457
   C      -10.21575       -10.00471         6.00666
   C       -9.30735       -10.29337         7.02206
   C       -7.99804        -9.83877         6.94533
   C       -7.14821       -10.14013         8.09301
   O       -7.52281       -10.66817         9.11213
   C       -5.64859        -9.74205         7.97588
   F       -5.48122        -8.41743         7.82948
   F       -4.96242       -10.10906         9.05391
   F       -5.05811       -10.32493         6.91567
   C       -7.56286        -9.14675         5.79200
   C       -8.42153        -8.92309         4.75106
   C      -10.80491        -8.56359         2.59641
   C       -9.97866        -7.57099         2.17684
   C       -9.96633        -6.96825         0.87639
   C      -10.76715        -7.39681        -0.16553
   C      -10.65614        -6.81238        -1.43829
   C      -11.30908        -7.08619        -2.63653
   C      -12.37381        -8.08987        -2.91356
   C      -11.87516        -9.52658        -2.64479
   N      -12.59671       -10.44480        -3.49994
   C      -13.65546        -7.77526        -2.11747
   N      -14.71755        -8.70135        -2.47827
   C      -10.72692        -6.21262        -3.62974
   C      -10.95114        -6.10941        -4.95139
   C      -10.18088        -5.15056        -5.80156
   C       -9.18650        -4.31836        -5.05941
   C       -8.97315        -4.44121        -3.73708
   C       -9.71187        -5.37843        -2.97368
   C       -9.67932        -5.74754        -1.64632
   C       -8.89525        -5.30074        -0.55601
   C       -9.03934        -5.89154         0.65424
   C      -11.17871        -4.36903        -6.61270
   C      -11.24931        -3.03828        -6.71136
   C      -12.27906        -2.37324        -7.45983
   S      -11.95164        -0.97509        -8.39716
   C      -13.57357        -0.90337        -9.03720
   C      -14.35875        -1.92892        -8.49060
   C      -13.62526        -2.75540        -7.58171
   C      -14.27374        -3.76852        -6.86474
   C      -15.60761        -4.02791        -7.11397
   C      -16.34768        -5.08363        -6.43598
   O      -17.51405        -5.34463        -6.59254
   C      -15.53294        -5.95477        -5.43041
   F      -15.06167        -5.23948        -4.39308
   F      -16.27312        -6.93400        -4.91821
   F      -14.46005        -6.54179        -5.99941
   C      -16.31792        -3.24455        -8.06835
   C      -15.72146        -2.21139        -8.72488
   C      -13.95960         0.08132        -9.96075
   C      -13.13238         1.04995       -10.45188
   C      -13.57525         2.01792       -11.36876
   C      -12.86972         3.10826       -11.81152
   C      -13.16989         3.85120       -13.02791
   C      -14.34324         3.84665       -13.73496
   C      -15.51015         3.14005       -13.37579
   N      -16.49400         2.59541       -13.14239
   C      -14.55890         4.58720       -14.91679
   N      -14.80244         5.15876       -15.88183
   C      -11.97063         4.60770       -13.36461
   C      -11.02387         4.44930       -12.32683
   C       -9.77971         5.05203       -12.40962
   C       -9.48563         5.81399       -13.53070
   C      -10.41686         5.97813       -14.54588
   C      -11.66620         5.37968       -14.47448
   C      -11.62270         3.63497       -11.27915
   C      -11.19888         3.57660        -9.97662
   C       -9.98482         4.13149        -9.51990
   N       -9.00035         4.53607        -9.09033
   C      -11.95865         3.06279        -8.90415
   N      -12.54008         2.70607        -7.98061
   H      -12.99140       -13.68974        11.53025
   H      -11.64665       -13.13545        13.50471
   H      -10.13719       -11.19718        13.49989
   H       -9.96066        -9.74787        11.51851
   H      -13.22087       -11.59458         6.43312
   H       -9.58709       -10.90011         7.86884
   H       -6.54329        -8.81021         5.70717
   H       -8.05016        -8.46821         3.84837
   H      -11.61066        -8.88801         1.95106
   H       -9.26693        -7.16109         2.87884
   H      -11.46835        -8.20117        -0.01578
   H      -12.62798        -8.05404        -3.97726
   H      -11.97999        -9.75173        -1.57194
   H      -10.81116        -9.58978        -2.89835
   H      -13.58538       -10.39240        -3.26986
   H      -12.27879       -11.39654        -3.35587
   H      -13.91896        -6.71823        -2.29228
   H      -13.46342        -7.89164        -1.04833
   H      -15.02167        -8.53419        -3.43217
   H      -15.52291        -8.56310        -1.87754
   H      -11.69032        -6.71603        -5.45681
   H       -9.62201        -5.76874        -6.52801
   H       -8.60774        -3.62816        -5.65394
   H       -8.22956        -3.83418        -3.24195
   H       -8.18610        -4.49990        -0.70353
   H       -8.44257        -5.56209         1.49241
   H      -11.88517        -4.98415        -7.15436
   H      -10.49783        -2.40687        -6.25885
   H      -13.71546        -4.29363        -6.10846
   H      -17.35611        -3.48584        -8.23425
   H      -16.28510        -1.60597        -9.41645
   H      -14.99622         0.07710       -10.27023
   H      -12.09518         1.04608       -10.14546
   H      -14.54197         1.83222       -11.81612
   H       -9.04518         4.92803       -11.63059
   H       -8.51758         6.28411       -13.61166
   H      -10.16758         6.57768       -15.40790
   H      -12.37523         5.51538       -15.27436
*
