# ORCA input file
# SCF done       -209.845109871432          0.000884331809
! CAM-B3LYP def2-SVP def2/J RIJCOSX Grid4 TightSCF
%maxcore 5000
%tddft
    Mode sTDDFT
    Ethresh 5.0
    maxcore 5000
end

%pal
  nprocs 6
  end
* xyz 0 1
   C        4.63884         4.30753         6.25634
   C        5.09738         4.48468         4.98244
   C        6.00488         5.49933         4.61223
   N        6.74001         6.31156         4.27235
   C        4.62846         3.72930         3.88619
   N        4.21644         3.18240         2.96552
   C        4.87520         5.18253         7.39591
   C        3.87563         4.92992         8.38439
   C        3.83713         5.62810         9.55842
   C        4.81359         6.61860         9.80348
   C        5.82081         6.86703         8.82477
   C        5.83550         6.13327         7.61687
   C        6.79214         7.85483         9.08629
   C        6.77169         8.56429        10.25614
   C        5.78069         8.31875        11.21888
   C        4.82215         7.36771        10.99711
   C        2.99226         3.84738         7.92577
   O        1.99669         3.40496         8.44658
   C        3.63852         3.33932         6.67352
   C        3.36864         2.09626         6.21883
   C        4.17200         1.34084         5.30777
   N        5.48524         1.48014         5.28101
   C        5.94295         0.52731         4.43616
   C        4.84338        -0.29286         3.92358
   C        5.34172        -1.31973         2.99647
   O        4.72163        -2.18386         2.41978
   C        6.79226        -1.02809         2.95660
   C        7.11359         0.09814         3.86417
   N        8.43679         0.39161         3.81269
   C        8.93882        -0.44568         2.94104
   C        7.96369        -1.35182         2.35709
   C        3.68930         0.24284         4.43975
   C        2.35197        -0.14440         4.16725
   C        1.26548         0.65397         4.31103
   C       -0.05973         0.25764         4.00225
   S       -1.32972         1.46515         3.98772
   C       -2.47572         0.26888         3.54886
   C       -1.90335        -1.00608         3.43824
   C       -0.54329        -1.00868         3.68615
   C       -2.94652        -2.03376         3.06978
   C       -2.62519        -2.70326         1.73087
   C       -3.10549        -3.08167         4.17567
   C       -4.17093        -1.15567         2.96591
   C       -3.84970         0.18178         3.25084
   S       -5.19532         1.22940         3.11975
   C       -6.22194        -0.13236         2.68082
   C       -5.50315        -1.32947         2.65557
   C       -7.58345         0.02079         2.38149
   C       -8.25646         1.20764         2.31455
   C       -9.62388         1.25259         1.97893
   N      -10.34038         0.14047         1.80089
   C      -11.57672         0.54256         1.48665
   C      -11.67955         2.01177         1.45583
   C      -13.03670         2.42533         1.04281
   O      -13.45519         3.54397         0.84670
   C      -13.73065         1.13650         0.89113
   C      -12.80939         0.01643         1.16152
   N      -13.43729        -1.17028         1.00538
   C      -14.66957        -0.86216         0.66290
   C      -14.91919         0.55645         0.57086
   C      -10.43126         2.48370         1.77549
   C       -9.93600         3.81239         1.86755
   C      -10.71067         4.92799         1.85432
   C      -10.11476         6.21339         1.88886
   C      -10.78654         7.39601         1.97376
   C      -10.21391         8.72701         1.88151
   C       -8.88385         9.05641         1.93693
   C       -8.39263        10.37625         1.85664
   N       -7.92627        11.42388         1.79684
   C       -7.82267         8.14521         2.11588
   N       -6.90642         7.46972         2.27139
   C      -11.31652         9.67349         1.75670
   C      -12.54454         8.96523         1.89314
   C      -12.26449         7.53221         2.10703
   O      -13.06445         6.66680         2.37687
   C      -13.75257         9.59546         1.82171
   C      -13.79015        10.98965         1.59475
   C      -12.56654        11.70479         1.44909
   C      -11.32994        11.02582         1.53571
   C      -12.61598        13.09468         1.21717
   C      -13.81492        13.74825         1.13319
   C      -15.01910        13.04314         1.27743
   C      -15.00687        11.69359         1.50373
   H        3.07156         5.42558        10.29267
   H        6.61465         6.32965         6.89689
   H        7.55192         8.04132         8.34183
   H        7.52014         9.31844        10.44723
   H        5.78130         8.88656        12.13711
   H        4.05672         7.17479        11.73438
   H        2.51958         1.58591         6.66141
   H        9.99118        -0.43018         2.71599
   H        8.17442        -2.10152         1.62036
   H        2.24416        -1.13218         3.74082
   H        1.39386         1.68003         4.62990
   H        0.08446        -1.87958         3.65262
   H       -1.69842        -3.26547         1.80856
   H       -2.51438        -1.95527         0.94931
   H       -3.42604        -3.38327         1.45234
   H       -2.18661        -3.65206         4.28302
   H       -3.91520        -3.76354         3.92908
   H       -3.33098        -2.60079         5.12477
   H       -5.96885        -2.26550         2.40595
   H       -8.14539        -0.87849         2.16544
   H       -7.73458         2.13498         2.50529
   H      -15.38940        -1.64040         0.47680
   H      -15.85268         1.01174         0.30558
   H       -8.86241         3.92784         1.96259
   H      -11.78831         4.85368         1.80539
   H       -9.03512         6.23900         1.79823
   H      -14.66904         9.03501         1.93106
   H      -10.42157        11.59488         1.41684
   H      -11.68602        13.63309         1.10744
   H      -13.84235        14.81275         0.95456
   H      -15.95637        13.57486         1.20805
   H      -15.93076        11.14527         1.61539
*
