# ORCA input file
# SCF done       -197.070742115004          0.000526056076
! CAM-B3LYP def2-SVP def2/J RIJCOSX Grid4 TightSCF
%maxcore 5000
%tddft
    Mode sTDDFT
    Ethresh 5.0
    maxcore 5000
end

%pal
  nprocs 6
  end
* xyz 0 1
   C       -5.97324         3.49619        -7.01968
   C       -6.78868         3.48577        -5.91699
   C       -7.44357         2.33617        -5.43686
   N       -7.98009         1.42273        -4.99287
   C       -7.15248         4.65221        -5.21389
   N       -7.53376         5.58686        -4.66664
   C       -5.83761         2.40687        -7.98275
   C       -5.33299         2.94596        -9.20254
   C       -5.14245         2.16635       -10.30597
   C       -5.44130         0.78640       -10.23566
   C       -5.93133         0.23922        -9.01529
   C       -6.12758         1.07326        -7.88959
   C       -6.21914        -1.13925        -8.95732
   C       -6.03546        -1.94033       -10.05142
   C       -5.55382        -1.40047       -11.25295
   C       -5.26345        -0.06613       -11.34282
   C       -5.06489         4.38617        -9.02437
   O       -4.67048         5.17892        -9.85170
   C       -5.31834         4.65222        -7.58505
   C       -4.81941         5.78812        -7.01495
   C       -4.55543         6.05859        -5.65948
   O       -4.63032         5.06962        -4.70579
   C       -4.26979         5.64239        -3.55387
   C       -4.07934         5.36856        -2.19799
   C       -3.65908         6.57440        -1.64633
   O       -3.58140         7.56111        -2.59259
   C       -3.95252         6.99758        -3.75063
   C       -4.12296         7.26704        -5.10278
   C       -3.29460         6.90797        -0.29551
   C       -2.87061         8.18477        -0.00286
   C       -2.48370         8.51352         1.31063
   C       -2.01021         9.69691         1.85474
   C       -1.74132        11.01175         1.19724
   C       -0.47451        10.92169         0.32625
   N        0.67121        10.61557         1.16532
   C       -2.94624        11.57229         0.40552
   N       -3.03832        11.05400        -0.94823
   C       -1.73599         9.42879         3.24760
   C       -1.20977        10.20212         4.21239
   C       -0.97290         9.68730         5.59507
   C       -1.41569         8.27579         5.81467
   C       -1.93328         7.51153         4.83566
   C       -2.09597         8.03053         3.52823
   C       -2.54477         7.48509         2.34537
   C       -3.00346         6.18727         2.01067
   C       -3.36219         5.90867         0.73395
   C       -1.64667        10.63083         6.55622
   C       -1.01625        11.65263         7.14182
   C       -1.62091        12.61581         8.01404
   O       -0.84000        13.67417         8.38802
   C       -1.61110        14.44460         9.17078
   C       -1.60382        15.63209         9.89520
   C       -2.88479        15.72164        10.44573
   O       -3.65763        14.63128        10.08882
   C       -2.88721        13.87156         9.31223
   C       -2.89380        12.69134         8.56023
   C       -3.52450        16.64741        11.29411
   C       -3.14533        17.89810        11.69477
   C       -3.92542        18.73062        12.59634
   C       -4.91789        18.31420        13.44529
   C       -5.62168        19.17445        14.31393
   N       -6.23472        19.82199        15.03740
   C       -5.34513        16.98068        13.61833
   N       -5.73543        15.92338        13.83962
   C       -3.40934        20.09140        12.50849
   C       -2.25982        20.08043        11.66982
   C       -2.01499        18.71131        11.18311
   O       -1.08186        18.36101        10.49035
   C       -1.55259        21.21552        11.39756
   C       -1.97646        22.44145        11.95752
   C       -3.12997        22.46275        12.79335
   C       -3.83869        21.26869        13.06139
   C       -3.54727        23.69243        13.34198
   C       -2.86006        24.84610        13.07871
   C       -1.72471        24.82382        12.25514
   C       -1.29191        23.64681        11.70719
   H       -4.76750         2.59558       -11.22331
   H       -6.49391         0.63307        -6.97510
   H       -6.59274        -1.54988        -8.03065
   H       -6.26106        -2.99496        -9.99698
   H       -5.41391        -2.04669       -12.10676
   H       -4.89217         0.35560       -12.26558
   H       -4.48902         6.55321        -7.70808
   H       -4.22835         4.44149        -1.68705
   H       -3.98158         8.18436        -5.63508
   H       -2.84406         8.94668        -0.76642
   H       -1.53536        11.73533         1.99411
   H       -0.35835        11.86847        -0.23169
   H       -0.59112        10.10717        -0.38996
   H        0.88995        11.40129         1.76903
   H        1.48757        10.42390         0.59658
   H       -2.87544        12.67357         0.42288
   H       -3.86046        11.29046         0.93386
   H       -2.32894        11.46626        -1.54313
   H       -3.94453        11.26818        -1.34702
   H       -0.92948        11.23221         4.04183
   H        0.11180         9.74401         5.77500
   H       -1.28778         7.89531         6.81671
   H       -2.22605         6.49044         5.03319
   H       -3.05794         5.42977         2.77877
   H       -3.70866         4.92241         0.47062
   H       -2.70129        10.46265         6.71278
   H        0.03667        11.82400         6.95860
   H       -0.82015        16.34902        10.02006
   H       -3.68827        11.98817         8.42896
   H       -4.48913        16.28681        11.63245
   H       -0.68213        21.17893        10.75936
   H       -4.71171        21.31969        13.69234
   H       -4.42142        23.70457        13.97635
   H       -3.18784        25.78289        13.50393
   H       -1.19494        25.74364        12.05691
   H       -0.41825        23.62307        11.07218
*
