# ORCA input file
# SCF done       -191.272478089558          0.000550020264
! CAM-B3LYP def2-SVP def2/J RIJCOSX Grid4 TightSCF
%maxcore 5000
%tddft
    Mode sTDDFT
    Ethresh 5.0
    maxcore 5000
end

%pal
  nprocs 6
  end
* xyz 0 1
   C        4.44756        -2.31141         2.28355
   C        5.80375        -2.10707         2.39658
   C        6.16375        -0.70958         2.30115
   N        7.42470        -0.30785         2.45988
   C        8.32761        -1.24015         2.67227
   C        9.71453        -0.78124         2.92540
   O       10.00095         0.38686         3.07594
   C       10.71934        -1.85788         3.01144
   C       10.41304        -3.15805         2.98337
   C        9.03740        -3.67437         2.85683
   O        8.78968        -4.85915         2.87765
   C        7.98386        -2.63296         2.69263
   N        6.74932        -3.04903         2.57025
   C        5.05192         0.11900         2.09429
   S        3.60939        -0.83980         2.05741
   C        5.06746         1.52065         1.94188
   C        6.19527         2.30955         1.75505
   C        5.86885         3.65499         1.64650
   C        4.48362         3.90435         1.77648
   S        3.58404         2.46841         1.98613
   C        4.25962         5.29547         1.71275
   C        5.50694         5.93566         1.53621
   C        6.54948         4.92452         1.45121
   C        7.86917         5.12713         1.17615
   C        8.78250         4.06773         0.97852
   N        9.53145         3.22784         0.76177
   C        8.40726         6.42097         1.00544
   N        8.85608         7.46731         0.86879
   C        5.40194         7.31569         1.47744
   C        4.08613         7.74834         1.61060
   S        2.96268         6.40710         1.80002
   C        3.59930         9.08068         1.61633
   C        4.42376        10.23323         1.49850
   C        3.85994        11.55014         1.52528
   N        4.66071        12.62442         1.41581
   C        5.94727        12.45730         1.28512
   C        6.50139        11.16318         1.25895
   N        5.75633        10.09770         1.36323
   C        2.47231        11.80325         1.66434
   C        1.65230        10.66023         1.77616
   C        2.21700         9.33394         1.75281
   N        1.27593         8.39596         1.87559
   S       -0.16232         9.10122         2.00546
   N        0.32577        10.62346         1.91423
   C        1.98021        13.12980         1.68721
   C        0.65194        13.52689         1.80981
   C        0.51968        14.90642         1.79214
   C        1.75954        15.57128         1.66055
   S        3.08435        14.48626         1.55457
   C        1.51229        16.95929         1.64797
   C        0.12183        17.18466         1.76380
   C       -0.54138        15.89695         1.89513
   C       -1.86305        15.66400         2.13395
   C       -2.38417        14.35644         2.24152
   N       -2.81872        13.29872         2.32689
   C       -2.79659        16.70132         2.35222
   N       -3.56297        17.52141         2.58285
   C       -0.22035        18.52970         1.71026
   C        0.90097        19.33981         1.58138
   S        2.39664        18.41335         1.51943
   C        0.90827        20.74730         1.49901
   C       -0.20189        21.58171         1.30826
   C        0.15507        22.98328         1.29052
   N       -0.78922        23.93036         1.14036
   C       -2.01877        23.51769         0.96719
   C       -3.07078        24.56409         0.82687
   O       -2.82528        25.74896         0.86574
   C       -4.44152        24.05214         0.64310
   C       -4.74289        22.75420         0.54527
   C       -3.73720        21.67635         0.60332
   O       -4.01701        20.51656         0.38955
   C       -2.35803        22.12464         0.91188
   N       -1.45737        21.18494         1.10062
   C        1.50735        23.18595         1.44544
   S        2.34592        21.70750         1.61703
   H        3.91788        -3.24117         2.32197
   H       11.74138        -1.52124         3.12192
   H       11.17770        -3.91873         3.06756
   H        7.18409         1.88844         1.72099
   H        6.21250         8.00878         1.35176
   H        6.55261        13.34817         1.19992
   H        7.56411        10.99795         1.15139
   H       -0.14716        12.81431         1.90091
   H       -1.21468        18.93741         1.74665
   H       -5.20617        24.81458         0.57696
   H       -5.76098        22.42125         0.39433
   H        2.03380        24.11813         1.46543
*
