# ORCA input file
# SCF done       -204.767628210720          0.000385958518
! CAM-B3LYP def2-SVP def2/J RIJCOSX Grid4 TightSCF
%maxcore 5000
%tddft
    Mode sTDDFT
    Ethresh 5.0
    maxcore 5000
end

%pal
  nprocs 6
  end
* xyz 0 1
   C       -1.54492        -0.98974        -1.47312
   C       -1.98750        -1.75108        -2.52489
   C       -1.24033        -2.79079        -3.11663
   N       -0.68734        -3.65083        -3.63864
   C       -3.21794        -1.58378        -3.19386
   N       -4.18813        -1.49744        -3.80296
   C       -0.22842        -1.08232        -0.85752
   C       -0.08917        -0.02142         0.07125
   C        1.05253         0.17122         0.81106
   C        2.10774        -0.72716         0.62721
   C        1.95777        -1.78821        -0.29825
   C        0.80341        -1.98211        -1.04759
   S        3.38262        -2.77721        -0.35613
   C        4.15160        -1.78149         0.83089
   C        3.38381        -0.75492         1.25701
   C       -1.32452         0.78085         0.09812
   O       -1.53156         1.74775         0.80041
   C       -2.25564         0.10982        -0.84341
   C       -3.59654         0.33888        -0.98548
   C       -4.38214         1.41731        -0.53313
   C       -4.04658         2.68929        -0.08659
   C       -5.16707         3.45943         0.19185
   C       -6.38328         2.77401        -0.03144
   S       -6.13767         1.19779        -0.61426
   C       -7.45396         3.63735         0.30226
   C       -6.92252         4.86880         0.72369
   C       -5.47118         4.80341         0.65558
   C       -4.59394         5.80893         0.93682
   C       -3.19533         5.67412         0.79668
   N       -2.05819         5.60316         0.67274
   C       -5.03098         7.08086         1.36258
   N       -5.37616         8.11988         1.70446
   C       -7.90353         5.79424         1.07164
   C       -9.18132         5.28901         0.92696
   S       -9.15993         3.62478         0.34376
   C      -10.43383         5.93764         1.18888
   C      -11.62407         5.22271         1.13692
   C      -12.84971         5.80814         1.39864
   C      -12.97633         7.15531         1.71387
   C      -11.77870         7.93416         1.75444
   C      -10.51789         7.32778         1.50932
   N       -9.40020         8.07561         1.57615
   C       -9.47424         9.34918         1.85985
   C      -10.74173         9.96173         2.08885
   N      -11.83623         9.24987         2.03423
   C      -10.86939        11.41325         2.39411
   C       -8.20382        10.12176         1.93232
   C      -14.26279         7.71929         2.00511
   C      -14.59406         9.04275         2.22055
   C      -15.94645         9.21268         2.50694
   C      -16.66463         8.00393         2.51345
   S      -15.67016         6.66576         2.15620
   C      -18.01445         8.28159         2.84578
   C      -18.14618         9.67209         3.04030
   C      -16.85161        10.29910         2.83938
   C      -16.54846        11.62202         2.98042
   C      -15.24245        12.11721         2.78953
   N      -14.18119        12.52285         2.63267
   C      -17.53405        12.56826         3.33176
   N      -18.34913        13.32542         3.61021
   C      -19.42546        10.04619         3.42814
   C      -20.27910         8.95884         3.54352
   S      -19.47440         7.45160         3.11473
   C      -21.64078         8.93282         3.91512
   C      -22.36151         9.87777         4.57949
   C      -22.00049        11.05777         5.33802
   C      -20.85694        11.24967         6.07035
   C      -20.63183        12.36906         6.89893
   N      -20.39793        13.25329         7.59186
   C      -19.81352        10.30968         6.16798
   N      -18.94993         9.56478         6.30359
   C      -23.19222        11.89461         5.42501
   C      -24.30830        11.14843         4.96485
   C      -23.85031         9.82937         4.49679
   O      -24.51677         8.90752         4.08452
   C      -25.58512        11.65669         4.97119
   C      -25.76616        12.96235         5.43775
   C      -24.64181        13.70535         5.87303
   C      -23.35091        13.18959         5.87712
   S      -25.10104        15.29657         6.38847
   C      -26.75969        14.95984         6.03249
   C      -26.96831        13.71679         5.54640
   H        1.12718         0.99192         1.50749
   H        0.73608        -2.80825        -1.73554
   H        5.14757        -2.03144         1.14115
   H        3.69504        -0.03397         1.99110
   H       -4.16598        -0.42075        -1.50902
   H       -3.02938         3.01528         0.02676
   H       -7.73484         6.79707         1.41605
   H      -11.59336         4.16997         0.89473
   H      -13.73801         5.19432         1.35461
   H      -10.35059        11.64719         3.32278
   H      -11.91630        11.68691         2.49236
   H      -10.41501        12.00590         1.60181
   H       -8.19673        10.90312         1.17351
   H       -7.35374         9.46357         1.77544
   H       -8.11152        10.60272         2.90470
   H      -13.85537         9.82046         2.17137
   H      -19.74489        11.06037         3.58486
   H      -22.21476         8.07350         3.58140
   H      -26.41853        11.06453         4.62644
   H      -22.52237        13.79358         6.20846
   H      -27.48798        15.72679         6.21155
   H      -27.93322        13.33227         5.26961
*
