# ORCA input file
# SCF done       -248.864162298109          0.000782806316
! CAM-B3LYP def2-SVP def2/J RIJCOSX Grid4 TightSCF
%maxcore 5000
%tddft
    Mode sTDDFT
    Ethresh 5.0
    maxcore 5000
end

%pal
  nprocs 6
  end
* xyz 0 1
   C       -9.78798        -3.37207        -1.49345
   C       -9.69011        -4.51399        -0.75095
   C      -10.36784        -5.71135        -1.06719
   N      -10.89700        -6.70519        -1.28567
   C       -8.84733        -4.64256         0.37425
   N       -8.16391        -4.78970         1.28434
   C      -10.55976        -3.18228        -2.70925
   C      -10.12013        -1.99238        -3.34908
   C      -10.67493        -1.54547        -4.52477
   C      -11.74455        -2.26740        -5.06005
   C      -12.19678        -3.43652        -4.39423
   C      -11.60519        -3.91809        -3.23400
   S      -13.56194        -4.12695        -5.19844
   C      -13.52348        -2.88386        -6.39264
   C      -12.53069        -1.98427        -6.20947
   C       -9.10003        -1.33815        -2.51828
   O       -8.38272        -0.40912        -2.81021
   C       -9.11506        -2.10201        -1.23306
   C       -8.76392        -1.63225        -0.01866
   C       -8.40093        -0.26796         0.31198
   C       -7.28779        -0.16445         1.26622
   C       -7.33508         0.69471         2.36587
   C       -6.26162         0.78029         3.22568
   C       -5.13057        -0.01223         3.02999
   C       -5.09634        -0.89891         1.95650
   C       -6.16751        -0.97649         1.08887
   C       -3.99270         0.16539         3.98236
   O       -3.83075         1.17939         4.60315
   O       -3.15566        -0.87308         4.12184
   C       -9.12235         0.80720        -0.12646
   C      -10.37861         0.62117        -0.87493
   C      -11.35843        -0.27166        -0.44327
   C      -12.45909        -0.53642        -1.22961
   C      -12.62852         0.11444        -2.45024
   C      -11.68705         1.06106        -2.85080
   C      -10.57372         1.30590        -2.07362
   C      -13.76343        -0.29952        -3.31841
   O      -14.24210        -1.40094        -3.27930
   O      -14.22535         0.61659        -4.18823
   C       -8.72229         2.18201         0.08576
   C       -7.37935         2.61407         0.04261
   C       -7.01038         3.98288         0.29289
   N       -5.70907         4.30999         0.38662
   C       -4.79724         3.40474         0.17216
   C       -5.17152         2.07223        -0.22654
   N       -6.42633         1.72081        -0.26974
   C       -4.17673         1.11921        -0.56032
   N       -3.34737         0.36534        -0.79535
   C       -3.42741         3.75804         0.27410
   N       -2.31063         4.00716         0.30747
   C       -7.97127         4.99536         0.50123
   C       -9.31391         4.58140         0.44693
   C       -9.68095         3.19464         0.26992
   N      -11.00911         3.03105         0.30259
   S      -11.70902         4.45705         0.48763
   N      -10.39403         5.36427         0.54608
   C       -7.57236         6.36806         0.72927
   C       -6.40271         6.84361        -0.01476
   C       -5.39798         7.56557         0.63191
   C       -4.29013         7.99285        -0.07000
   C       -4.16884         7.71214        -1.42865
   C       -5.17298         6.99910        -2.08195
   C       -6.27760         6.56974        -1.37985
   C       -2.96171         8.18500        -2.14500
   O       -2.11975         8.90098        -1.66679
   O       -2.88642         7.73933        -3.40918
   C       -8.22106         7.19727         1.61274
   C       -9.21194         6.67497         2.56864
   C       -8.94677         5.51922         3.30596
   C       -9.86687         5.04482         4.21644
   C      -11.06771         5.72236         4.41934
   C      -11.34163         6.87326         3.68441
   C      -10.42400         7.33845         2.76606
   C      -12.02549         5.18259         5.40990
   O      -11.94323         4.09016         5.91169
   O      -13.02219         6.03204         5.69990
   C       -7.99342         8.61150         1.57075
   C       -8.29282         9.53617         2.52059
   C       -8.62849         9.39217         3.92342
   C       -8.10189         8.44764         4.76332
   C       -8.44866         8.31964         6.12132
   N       -8.74049         8.16705         7.22052
   C       -7.08848         7.57150         4.32470
   N       -6.20853         6.91920         3.98187
   C       -9.40658        10.56042         4.30361
   C       -9.32681        11.51580         3.25489
   C       -8.54767        10.95486         2.13438
   O       -8.23982        11.48948         1.09524
   C       -9.92634        12.74944         3.34233
   C      -10.64221        13.04782         4.50596
   C      -10.72566        12.08120         5.53870
   C      -10.11266        10.83629         5.45758
   S      -11.66684        12.66652         6.87260
   C      -11.93124        14.16956         6.05883
   C      -11.34724        14.23756         4.84250
   H      -10.30852        -0.64956        -5.00201
   H      -11.97876        -4.81094        -2.75996
   H      -14.26091        -2.89399        -7.17161
   H      -12.35710        -1.14055        -6.85281
   H       -8.76098        -2.31554         0.82385
   H       -8.21759         1.29420         2.53947
   H       -6.27426         1.45646         4.06732
   H       -4.22408        -1.50605         1.75639
   H       -6.12426        -1.64148         0.23993
   H       -3.41636        -1.64132         3.59623
   H      -11.24369        -0.76917         0.50831
   H      -13.20290        -1.25468        -0.92023
   H      -11.78139         1.57310        -3.79982
   H       -9.81771         1.99450        -2.41917
   H      -13.79834         1.47666        -4.07826
   H       -5.47148         7.73918         1.69469
   H       -3.49891         8.54076         0.41797
   H       -5.07725         6.79058        -3.13608
   H       -7.06406         6.02817        -1.88723
   H       -2.07340         8.06985        -3.82225
   H       -8.00168         5.01252         3.17740
   H       -9.66989         4.15554         4.79580
   H      -12.27578         7.39118         3.83515
   H      -10.65318         8.21285         2.17521
   H      -13.60533         5.63685         6.36691
   H       -7.66128         9.01800         0.62068
   H       -9.84400        13.46359         2.53777
   H      -10.20168        10.12522         6.26269
   H      -12.51721        14.92190         6.54995
   H      -11.40378        15.09322         4.19441
*
