# ORCA input file
# SCF done       -205.220722441102          0.000637441498
! CAM-B3LYP def2-SVP def2/J RIJCOSX Grid4 TightSCF
%maxcore 5000
%tddft
    Mode sTDDFT
    Ethresh 5.0
    maxcore 5000
end

%pal
  nprocs 6
  end
* xyz 0 1
   C       -3.92634        -1.27534         2.63221
   C       -4.66716        -2.12166         3.41167
   C       -4.22155        -3.38651         3.85360
   N       -3.91619        -4.41993         4.24820
   C       -5.96361        -1.85801         3.90458
   N       -7.01434        -1.72222         4.34659
   C       -2.58771        -1.54277         2.12283
   C       -2.12972        -0.40849         1.40796
   C       -0.89371        -0.35868         0.81003
   C       -0.07298        -1.48626         0.91029
   C       -0.53896        -2.61662         1.62522
   C       -1.78447        -2.66416         2.23691
   S        0.63514        -3.89754         1.63062
   C        1.71940        -2.91292         0.68450
   C        1.23024        -1.68716         0.37952
  Br        3.39473        -3.59411         0.19064
   C       -3.15697         0.64875         1.44825
   O       -3.01978         1.79915         1.10083
   C       -4.32885         0.03590         2.14045
   C       -5.51947         0.64938         2.32842
   C       -5.93024         1.85874         1.66299
   C       -6.65186         2.84894         2.32564
   C       -7.04235         4.06426         1.70915
   N       -7.73905         4.90238         2.52708
   C       -7.87190         4.42140         3.69740
   S       -7.16052         2.84904         3.98342
   C       -6.74693         4.31459         0.36227
   C       -6.09010         3.29801        -0.32240
   C       -5.68369         2.08949         0.29979
   N       -5.07653         1.20524        -0.53703
   C       -4.95176         1.68011        -1.71384
   S       -5.58345         3.28008        -1.98234
   C       -7.11063         5.58853        -0.24483
   C       -7.78636         5.67176        -1.46821
   C       -8.13224         6.93612        -2.05776
   N       -8.79809         6.96400        -3.24047
   C       -9.11336         5.85131        -3.80464
   C       -8.79202         4.59385        -3.20552
   N       -8.15811         4.52201        -2.08768
   F       -9.14574         3.45689        -3.79524
   F       -9.74773         5.89736        -4.96987
   C       -7.83214         8.14958        -1.42738
   C       -7.16395         8.07377        -0.19904
   C       -6.80154         6.80064         0.38680
   N       -6.12083         6.96019         1.52752
   S       -5.97737         8.52113         1.82729
   N       -6.72965         9.09934         0.54292
   C       -8.22112         9.43135        -2.00080
   C       -7.95491         9.79275        -3.31568
   C       -8.35877        11.03228        -3.87167
   N       -7.96241        11.21955        -5.16127
   C       -7.29970        10.22047        -5.60270
   S       -7.06617         8.89311        -4.50522
   C       -9.07531        11.97231        -3.10882
   C       -9.30440        11.61930        -1.78016
   C       -8.90702        10.37544        -1.22698
   N       -9.29138        10.19455         0.06712
   C       -9.92735        11.19978         0.51782
   S      -10.16676        12.53317        -0.58787
   C       -9.50948        13.23750        -3.63424
   C       -9.88626        13.52762        -4.89870
   C      -10.15818        12.68151        -6.04722
   C      -10.67273        11.41487        -6.01482
   C      -10.96498        10.65849        -7.16826
   N      -11.19614        10.00281        -8.08119
   C      -11.02836        10.74924        -4.82334
   N      -11.37742        10.19239        -3.88245
   C      -10.01948        13.51520        -7.23318
   C       -9.92179        14.87230        -6.83047
   C       -9.92884        14.94818        -5.35648
   O       -9.91872        15.93471        -4.65991
   C       -9.82400        15.90317        -7.73421
   C       -9.81061        15.57997        -9.09489
   C       -9.89225        14.22089        -9.48525
   C       -9.99983        13.17851        -8.57347
   S       -9.84518        14.04859       -11.21297
   C       -9.72629        15.77997       -11.38695
   C       -9.71748        16.45414       -10.21249
  Br       -9.61751        16.53150       -13.10102
   H       -0.57275         0.52271         0.27740
   H       -2.09098        -3.54746         2.77166
   H        1.76561        -0.95363        -0.19519
   H       -6.24146         0.23733         3.02277
   H       -8.39134         4.92337         4.49012
   H       -4.49604         1.14036        -2.52117
   H       -6.90349        10.17505        -6.59872
   H      -10.31582        11.25816         1.51576
   H       -9.49031        14.07214        -2.93937
   H       -9.76038        16.92770        -7.40259
   H      -10.05380        12.15756        -8.91344
   H       -9.64805        17.52380       -10.13522
*
