# ORCA input file
# SCF done       -203.990239302247          0.000996817130
! CAM-B3LYP def2-SVP def2/J RIJCOSX Grid4 TightSCF
%maxcore 5000
%tddft
    Mode sTDDFT
    Ethresh 5.0
    maxcore 5000
end

%pal
  nprocs 6
  end
* xyz 0 1
   C        1.84967        -1.21810         4.45456
   O        1.21095        -2.19482         4.80539
   C        2.27654        -0.10297         5.32008
   C        2.97471         0.84315         4.54913
   C        3.47705         1.98094         5.15789
   C        3.27399         2.15183         6.52345
   C        2.57878         1.20532         7.27859
   C        2.07138         0.06273         6.67358
  Br        2.31964         1.46392         9.13251
  Br        3.96332         3.70341         7.35467
   C        3.02303         0.37854         3.16206
   C        3.58478         1.06930         2.12132
   C        4.20883         2.32866         2.25675
   N        4.72924         3.35007         2.30440
   C        3.61504         0.64961         0.77386
   N        3.67324         0.38554        -0.34170
   C        2.35298        -0.90778         3.11530
   C        2.24459        -1.72233         2.01342
   C        1.62590        -2.96961         1.86483
   C        1.66380        -3.67485         0.65238
   C        0.99020        -4.87690         0.71710
   C        0.41354        -5.09831         1.99371
   S        0.71962        -3.84562         3.10165
   C       -0.25313        -6.34490         1.96038
   C       -0.10231        -6.91397         0.68196
   C        0.68664        -6.01360        -0.14072
   C        1.06749        -6.20761        -1.43595
   C        0.71287        -7.37109        -2.15012
   N        0.43158        -8.31846        -2.73203
   C        1.84508        -5.26523        -2.14235
   N        2.47867        -4.50398        -2.71927
   C       -0.73232        -8.15006         0.55855
   C       -1.36651        -8.53585         1.72455
   S       -1.17224        -7.33391         3.00081
   C       -2.11895        -9.72877         1.98436
   C       -2.74941        -9.90545         3.21045
   C       -3.49403       -11.03252         3.50211
   C       -3.65645       -12.07106         2.59273
   C       -3.01266       -11.93827         1.32388
   C       -2.25738       -10.77398         1.01953
   N       -1.67001       -10.66328        -0.18690
   C       -1.78928       -11.62028        -1.06896
   C       -2.54029       -12.79371        -0.75971
   N       -3.12254       -12.91542         0.40410
   C       -2.68830       -13.91015        -1.73275
   C       -1.12314       -11.43923        -2.38748
   C       -4.45250       -13.21327         2.93548
   C       -4.66330       -14.37127         2.20918
   C       -5.51312       -15.25973         2.86244
   C       -5.96064       -14.77615         4.10544
   S       -5.32866       -13.23395         4.46466
   C       -6.81309       -15.74251         4.68398
   C       -6.91129       -16.84510         3.80641
   C       -6.09647       -16.57253         2.63299
   C       -5.92369       -17.36569         1.53704
   C       -6.55201       -18.62334         1.41230
   N       -7.06655       -19.64202         1.30558
   C       -5.11707       -16.96979         0.44951
   N       -4.46817       -16.64932        -0.43997
   C       -7.75213       -17.83878         4.28819
   C       -8.27674       -17.53083         5.53844
   S       -7.73979       -15.94270         6.09343
   C       -9.21958       -18.30237         6.24588
   C       -9.65295       -18.18093         7.53403
   C      -10.98515       -18.72337         7.90912
   O      -11.66807       -19.49037         7.27413
   C      -11.31466       -18.06149         9.19333
   C      -10.21370       -17.29906         9.62572
   C       -9.11223       -17.49226         8.68457
   C       -7.78490       -17.32186         8.97942
   C       -6.74746       -17.80781         8.15652
   N       -5.88679       -18.23088         7.52613
   C       -7.31640       -16.73293        10.17125
   N       -6.89540       -16.23983        11.11784
   C      -10.30025       -16.55553        10.78923
   C      -11.48968       -16.58757        11.50899
   C      -12.57318       -17.35847        11.08279
   C      -12.49009       -18.10465         9.91340
  Br      -14.17217       -17.39046        12.08982
  Br      -11.62490       -15.55674        13.08730
   H        4.02044         2.73422         4.61133
   H        1.53259        -0.67702         7.24502
   H        2.71401        -1.37347         1.10154
   H        2.17257        -3.29226        -0.21496
   H       -0.75098        -8.76901        -0.31886
   H       -2.66110        -9.13483         3.96253
   H       -3.96300       -11.10606         4.47277
   H       -1.70991       -14.30770        -1.99793
   H       -3.15916       -13.55238        -2.64694
   H       -3.29234       -14.70530        -1.30486
   H       -0.40193       -12.23731        -2.55670
   H       -0.61274       -10.48081        -2.42327
   H       -1.85932       -11.48285        -3.18867
   H       -4.20158       -14.52043         1.25105
   H       -7.97238       -18.76288         3.78452
   H       -9.75064       -19.04024         5.65150
   H       -9.48261       -15.94757        11.14232
   H      -13.32309       -18.70146         9.57580
*
