# ORCA input file
# SCF done       -170.404727184847          0.000741363421
! CAM-B3LYP def2-SVP def2/J RIJCOSX Grid4 TightSCF
%maxcore 5000
%tddft
    Mode sTDDFT
    Ethresh 5.0
    maxcore 5000
end

%pal
  nprocs 6
  end
* xyz 0 1
   C        0.95618        12.42224        -8.97202
   S        1.22236        12.65587        -7.29907
   C        2.36502        11.34798        -7.27943
   C        2.51820        10.78240        -8.53204
   C        1.70591        11.40967        -9.50103
   C        1.72268        11.03415       -10.94919
   C        2.39015         9.66990       -11.16774
   C        1.52684         8.58201       -10.77592
   N        0.87868         7.69332       -10.46432
   C        3.70641         9.56622       -10.36393
   C        4.60181        10.62996       -10.75206
   N        5.32205        11.46512       -11.05244
   C        3.42496         9.63776        -8.85477
   C        3.03863        11.01954        -6.07080
   O        3.79608         9.89341        -5.99248
   C        3.13314        11.69035        -4.87117
   C        2.69828        12.87887        -4.14094
   O        1.95927        13.77674        -4.45100
   N        3.35581        12.76588        -2.91429
   C        4.16506        11.64188        -2.76781
   O        4.81526        11.37711        -1.78998
   C        4.01509        10.94057        -4.04598
   C        4.40192         9.83505        -4.76753
   C        5.28793         8.75461        -4.48403
   C        5.33162         7.64872        -5.25509
   C        6.30637         6.60659        -5.14162
   C        6.24073         5.43885        -5.80275
   C        5.05301         5.02813        -6.62280
   C        7.44327         4.53526        -5.91354
   N        7.91797         4.62265        -7.28782
   C        8.52425         5.74956        -7.73026
   C        8.32128         6.28465        -8.96321
   C        8.97101         7.43464        -9.44543
   C        8.55027         8.14395       -10.53983
   C        9.13495         9.30142       -11.10529
   C        8.44047         9.82919       -12.15106
   C        7.25190         9.13102       -12.46154
   S        7.06865         7.75038       -11.41494
   C        6.28105         9.47525       -13.38430
   C        6.27081        10.56955       -14.27076
   C        5.09712        10.69582       -14.95268
   C        4.13015         9.70624       -14.64838
   S        4.79461         8.55892       -13.52998
   C        2.80207         9.78972       -15.05405
   C        1.69567         9.02278       -14.71912
   C        1.60879         7.71980       -14.23678
   C        0.41441         7.12167       -13.69947
   C       -0.69328         7.79326       -13.23534
   C       -1.86657         7.16611       -12.77655
   N       -2.86028         6.70769       -12.42805
   C       -0.74522         9.18878       -13.08256
   N       -0.80712        10.31645       -12.86240
   C        0.63204         5.68135       -13.61361
   C        1.96174         5.41050       -14.01773
   C        2.60713         6.67611       -14.42871
   O        3.72881         6.79369       -14.90403
   C        2.48552         4.14303       -14.02795
   C        1.65515         3.09128       -13.61979
   C        0.33026         3.37340       -13.21861
   C       -0.19992         4.65915       -13.20519
   S       -0.52072         1.92780       -12.75992
   C        0.89914         0.97876       -13.10815
   C        1.95583         1.70310       -13.54522
  Br        0.85669        -0.88133       -12.85838
   H        0.25847        13.04683        -9.49368
   H        2.29098        11.78726       -11.50515
   H        0.70832        11.02294       -11.35715
   H        2.60022         9.54205       -12.23616
   H        4.20510         8.61715       -10.60077
   H        4.36421         9.72898        -8.30367
   H        2.94796         8.70322        -8.54091
   H        3.25068        13.45396        -2.18242
   H        5.91908         8.87692        -3.61662
   H        4.61775         7.56664        -6.06266
   H        7.16343         6.81661        -4.51527
   H        4.12863         5.23436        -6.08931
   H        5.08633         3.96320        -6.84337
   H        5.02009         5.57399        -7.56755
   H        7.19434         3.49259        -5.70216
   H        8.24289         4.85606        -5.24371
   H        7.28253         4.20446        -7.95733
   H        9.19528         6.22079        -7.02481
   H        7.57468         5.83793        -9.60848
   H        9.82741         7.81114        -8.90243
   H       10.05304         9.70750       -10.71865
   H        8.73412        10.70967       -12.69201
   H        7.10818        11.23468       -14.37595
   H        4.88633        11.48277       -15.65508
   H        2.58632        10.67970       -15.63456
   H        0.74475         9.51471       -14.89529
   H        3.50229         3.96331       -14.34069
   H       -1.21652         4.82767       -12.89154
   H        2.90762         1.27830       -13.80790
*
