# ORCA input file
# SCF done       -218.084998726910          0.000401536919
! CAM-B3LYP def2-SVP def2/J RIJCOSX Grid4 TightSCF
%maxcore 5000
%tddft
    Mode sTDDFT
    Ethresh 5.0
    maxcore 5000
end

%pal
  nprocs 6
  end
* xyz 0 1
   C       -8.79520        -1.98138         0.14371
   C       -9.08814        -2.55574        -1.06913
   C       -9.76795        -3.78049        -1.21871
   N      -10.32490        -4.76870        -1.39826
   C       -8.71793        -2.01324        -2.31631
   N       -8.42667        -1.63852        -3.36246
   C       -9.06177        -2.56657         1.45336
   C       -8.50225        -1.72394         2.44458
   C       -8.58303        -2.00332         3.78624
   C       -9.24663        -3.17437         4.16920
   C       -9.80570        -4.00806         3.17248
   C       -9.72465        -3.72371         1.81403
   S      -10.58770        -5.39634         3.86587
   C      -10.15544        -4.84675         5.46307
   C       -9.46244        -3.68358         5.47900
  Br      -10.66307        -5.85831         6.95878
   C       -7.87046        -0.55499         1.79907
   O       -7.36614         0.39437         2.36641
   C       -8.09055        -0.73839         0.34919
   C       -7.89600         0.24242        -0.59789
   C       -7.08963         1.37752        -0.45955
   S       -7.54092         2.83680        -1.29964
   C       -6.28484         3.76887        -0.56126
   C       -5.46664         2.94111         0.24336
   C       -5.90880         1.58907         0.28089
   C       -5.13273         0.61644         0.93228
   C       -4.00694         1.01119         1.60036
   F       -3.24643         0.10076         2.22448
   C       -3.61091         2.36406         1.62828
   F       -2.50308         2.70947         2.30384
   C       -4.31270         3.32008         0.94703
   C       -6.17215         5.15714        -0.72914
   C       -6.97767         5.90641        -1.54027
   C       -6.94516         7.30818        -1.64278
   S       -8.04884         8.11306        -2.74917
   C       -6.17243         8.22445        -0.92937
   C       -6.47544         9.54264        -1.22818
   C       -6.05486        10.89635        -0.85057
   C       -5.06951        11.28186        -0.01516
   C       -4.63569        12.71851         0.10034
   N       -5.59997        13.50547         0.86985
   C       -4.27874        10.30477         0.80994
   N       -3.07217         9.93652         0.07659
   C       -7.48085         9.63879        -2.22309
   C       -7.74881        10.98864        -2.47309
   S       -8.82473        11.93544        -3.41116
   C       -6.92278        11.77432        -1.63572
   C       -7.21657        13.12135        -1.71283
   C       -8.23042        13.40105        -2.63222
   C       -8.80678        14.64361        -2.93462
   C       -8.52703        15.78844        -2.22942
   C       -9.10088        17.03758        -2.45261
   C       -8.86264        18.11792        -1.62412
   C       -9.38725        19.42319        -1.71005
   C       -8.99922        20.25188        -0.69294
   C       -8.14983        19.63611         0.24628
   S       -7.83509        17.98458        -0.20712
   C       -7.61291        20.16173         1.41505
   C       -7.78496        21.44239         1.96912
   C       -7.14527        21.61199         3.16688
   C       -6.44089        20.47417         3.61007
   S       -6.59728        19.18191         2.44717
   C       -5.71487        20.34367         4.78298
   C       -5.07182        19.16768         5.14039
   C       -4.31739        18.88759         6.26260
   C       -3.75404        19.71625         7.29012
   C       -3.40332        21.04480         7.19818
   C       -2.83298        21.78246         8.25292
   N       -2.38803        22.44284         9.08124
   C       -3.45827        21.80746         6.01621
   N       -3.43095        22.46931         5.07727
   C       -3.40847        18.84323         8.41434
   C       -3.57013        17.49576         8.00703
   C       -4.09233        17.47266         6.62449
   O       -4.32275        16.49720         5.93863
   C       -3.28527        16.43548         8.83074
   C       -2.83017        16.71691        10.12415
   C       -2.68673        18.06452        10.52595
   C       -2.96661        19.13892         9.68819
   S       -2.12356        18.18629        12.16566
   C       -2.08482        16.44717        12.28489
   C       -2.47480        15.80685        11.15783
  Br       -1.53476        15.64069        13.88743
   H       -8.14605        -1.34174         4.51762
   H      -10.17153        -4.38696         1.09234
   H       -9.11749        -3.20241         6.37591
   H       -8.47918         0.18976        -1.50993
   H       -5.39548        -0.42701         0.89658
   H       -3.96053         4.33834         0.95163
   H       -5.40252         5.64423        -0.14917
   H       -7.71849         5.39487        -2.14125
   H       -5.44224         7.89477        -0.21486
   H       -4.57724        13.16203        -0.89907
   H       -3.62446        12.72856         0.53349
   H       -5.74262        13.08777         1.78393
   H       -5.23400        14.44030         1.02161
   H       -4.91229         9.44953         1.09073
   H       -3.95704        10.79566         1.73388
   H       -3.31507         9.46038        -0.78561
   H       -2.49251         9.31660         0.63105
   H       -6.75577        13.87122        -1.10035
   H       -9.53431        14.67756        -3.73445
   H       -7.83243        15.72172        -1.40288
   H       -9.77711        17.17600        -3.28536
   H      -10.04000        19.71595        -2.51349
   H       -9.30748        21.27731        -0.59707
   H       -8.37324        22.20122         1.48518
   H       -7.15727        22.52146         3.74034
   H       -5.69347        21.20243         5.43635
   H       -5.24356        18.30423         4.50247
   H       -3.40950        15.41924         8.49089
   H       -2.84448        20.14884        10.04260
   H       -2.51149        14.73746        11.05719
*
