# ORCA input file
# SCF done       -199.372317745840          0.000429247693
! CAM-B3LYP def2-SVP def2/J RIJCOSX Grid4 TightSCF
%maxcore 5000
%tddft
    Mode sTDDFT
    Ethresh 5.0
    maxcore 5000
end

%pal
  nprocs 6
  end
* xyz 0 1
   C       -2.50204         1.05626         0.24449
   C       -2.49424         0.20804         1.32042
   C       -1.33601        -0.40854         1.83701
   N       -0.42673        -0.93580         2.29772
   C       -3.64917        -0.16185         2.04006
   N       -4.56656        -0.48934         2.64705
   C       -1.33793         1.45510        -0.54187
   C       -1.75953         2.31423        -1.59074
   C       -0.88327         2.85775        -2.49936
   C        0.47301         2.54253        -2.36765
   C        0.88429         1.68531        -1.31871
   C       -0.00206         1.13358        -0.40077
   S        2.60127         1.43048        -1.33694
   C        2.74457         2.46509        -2.73300
   C        1.56645         2.97543        -3.16568
  Br        4.43286         2.77396        -3.48793
   C       -3.21237         2.49430        -1.50027
   O       -3.93420         3.16234        -2.23467
   C       -3.65033         1.71406        -0.33800
   C       -4.96222         1.69821         0.06244
   N       -5.88586         2.38539        -0.62212
   C       -7.20435         2.48971        -0.32287
   S       -7.87181         1.72931         1.08701
   C       -9.42595         2.37319         0.66815
   N      -10.50306         2.07264         1.52088
   O      -11.59324         2.51986         1.23036
   O      -10.24997         1.38092         2.48931
   C       -9.42744         3.11903        -0.47586
   C       -8.15066         3.20270        -1.07418
   C       -7.84815         3.89929        -2.29090
   C       -8.75073         4.60637        -3.00611
   C       -8.45544         5.26630        -4.22786
   O       -7.21675         5.23120        -4.79343
   C       -9.28619         6.00104        -5.05101
   C      -10.65602         6.50552        -5.20547
   O      -11.62480         6.38640        -4.50321
   N      -10.61037         7.19973        -6.41144
   C       -9.37367         7.19974        -7.05327
   O       -9.13938         7.74004        -8.10517
   C       -8.51679         6.41946        -6.15976
   C       -7.23250         5.92287        -5.96845
   C       -6.06500         6.02220        -6.75133
   C       -6.06362         6.66626        -7.95828
   C       -4.94590         6.79125        -8.78999
   C       -4.98893         7.40166       -10.02426
   C       -3.91440         7.57054       -10.93128
   C       -4.26036         8.19269       -12.09277
   C       -5.62823         8.54412       -12.16151
   S       -6.45895         8.07304       -10.70216
   C       -6.29019         9.16022       -13.21220
   C       -5.75387         9.57054       -14.45213
   C       -6.67495        10.12749       -15.28912
   C       -7.98210        10.18327       -14.75190
   S       -7.99887         9.51719       -13.13693
   C       -9.10211        10.69229       -15.37930
   C      -10.37067        10.69385       -14.80624
   C      -11.54041        11.20001       -15.32657
   C      -11.81070        12.06203       -16.44555
   C      -10.97469        13.01143       -16.98620
   C      -11.32879        13.84735       -18.06319
   N      -11.55300        14.53998       -18.95154
   C       -9.70855        13.34862       -16.46886
   N       -8.68997        13.70042       -16.07114
   C      -13.22739        11.91091       -16.77950
   C      -13.85287        11.14450       -15.76452
   C      -12.83362        10.72370       -14.78057
   O      -13.00439        10.08616       -13.76474
   C      -15.19552        10.85853       -15.77618
   C      -15.95618        11.34004       -16.84770
   C      -15.31983        12.09089       -17.86343
   C      -13.96187        12.38958       -17.84625
   S      -16.44167        12.57335       -19.09953
   C      -17.73381        11.77364       -18.24408
   C      -17.34720        11.17497       -17.09298
  Br      -19.46978        11.80146       -18.95425
   H       -1.23162         3.50848        -3.28593
   H        0.36017         0.48759         0.38127
   H        1.47254         3.63101        -4.01192
   H       -5.29734         1.14718         0.93158
   H       -5.50588         2.89122        -1.44221
   H      -10.32116         3.57728        -0.85702
   H       -6.83414         3.84670        -2.66310
   H       -9.77747         4.70922        -2.69038
   H      -11.41721         7.66867        -6.79833
   H       -5.17124         5.55570        -6.36275
   H       -6.98923         7.10744        -8.30604
   H       -3.99764         6.38489        -8.46283
   H       -2.92241         7.22646       -10.69743
   H       -3.57530         8.40356       -12.89383
   H       -4.71468         9.44350       -14.69599
   H       -6.45794        10.50509       -16.27224
   H       -8.96185        11.07405       -16.37988
   H      -10.49100        10.15742       -13.86904
   H      -15.64647        10.28010       -14.98524
   H      -13.52176        12.96165       -18.64608
   H      -18.01304        10.63761       -16.44267
*
