# ORCA input file
# SCF done       -167.902597156879          0.000664841580
! CAM-B3LYP def2-SVP def2/J RIJCOSX Grid4 TightSCF
%maxcore 5000
%tddft
    Mode sTDDFT
    Ethresh 5.0
    maxcore 5000
end

%pal
  nprocs 6
  end
* xyz 0 1
   C       -1.75746         2.34280        -2.06532
   C       -1.26965         1.25224        -1.38956
   C       -0.00202         0.68400        -1.62427
   N        1.02550         0.19128        -1.76770
   C       -1.97941         0.53387        -0.40542
   N       -2.50698        -0.11906         0.37853
   C       -1.09345         3.02080        -3.17497
   C       -1.98062         3.99098        -3.69758
   C       -1.66455         4.78835        -4.76870
   C       -0.40097         4.63029        -5.34705
   C        0.49048         3.67809        -4.80209
   C        0.16379         2.86111        -3.72512
   S        2.01385         3.68034        -5.64018
   C        1.43456         4.93894        -6.69838
   C        0.16710         5.33784        -6.44124
  Br        2.55830         5.61403        -8.03837
   C       -3.21220         4.01243        -2.88572
   O       -4.11049         4.83063        -2.99244
   C       -3.04595         2.97047        -1.86657
   C       -3.84731         2.81163        -0.75775
   C       -5.12792         3.34145        -0.54482
   S       -5.52092         3.82421         1.08745
   C       -7.00593         4.55260         0.57354
   C       -7.24109         4.30605        -0.78139
   C       -6.19832         3.61227        -1.40278
   C       -6.31676         3.11570        -2.80206
   C       -7.78276         3.03397        -3.20825
   C       -8.41515         4.41062        -3.01927
   N       -9.78855         4.40243        -3.50894
   C       -8.45321         4.76285        -1.52725
   C       -7.67859         5.37404         1.51935
   C       -8.83924         6.05215         1.36040
   C       -9.25021         7.06338         2.28104
   C      -10.26541         7.93343         2.10942
   C      -11.21993         7.93121         0.96030
   C      -10.32511         9.16196         2.98352
   N       -9.40355        10.13566         2.41216
   C       -9.74467        10.89644         1.34198
   C       -8.86799        11.22989         0.35740
   C       -9.14482        12.07965        -0.72791
   C       -8.29601        12.22430        -1.79675
   C       -8.45487        13.03835        -2.94355
   C       -7.45623        12.91469        -3.86372
   C       -6.45804        11.98303        -3.50236
   S       -6.80317        11.29834        -1.93416
   C       -5.34976        11.56341        -4.21593
   C       -4.88759        11.97035        -5.48417
   C       -3.76654        11.31305        -5.89599
   C       -3.28373        10.34391        -4.97790
   S       -4.31347        10.31160        -3.56298
   C       -2.15330         9.57994        -5.13913
   C       -1.65789         8.60873        -4.24687
   S       -0.00234         8.02556        -4.40085
   C       -0.08998         7.00177        -3.01716
   C       -1.33658         7.08251        -2.44768
   C       -2.21345         7.97025        -3.15057
   O       -3.44115         7.96228        -2.59139
   C       -3.35759         7.12113        -1.53444
   N       -4.50973         6.93215        -0.75359
   O       -4.37247         6.26800         0.26419
   O       -5.55498         7.43929        -1.10592
   C       -2.11552         6.55973        -1.37985
   H       -2.36649         5.51488        -5.14810
   H        0.87843         2.14918        -3.34703
   H       -0.34503         6.10460        -6.99277
   H       -3.40963         2.31853         0.10314
   H       -5.81659         2.14929        -2.89903
   H       -5.80733         3.81895        -3.46922
   H       -8.31659         2.30516        -2.59642
   H       -7.86154         2.72489        -4.25211
   H       -7.78250         5.15035        -3.54242
   H      -10.19191         5.33053        -3.43438
   H       -9.81246         4.13532        -4.48722
   H       -9.34447         4.29142        -1.10132
   H       -8.54641         5.84694        -1.41875
   H       -7.12906         5.52012         2.44200
   H       -9.44432         5.90352         0.48479
   H       -8.61853         7.18587         3.15375
   H      -11.23606         6.97760         0.44361
   H      -10.94000         8.70848         0.24489
   H      -12.22776         8.15115         1.31090
   H      -10.00207         8.94750         4.00496
   H      -11.32410         9.60026         3.00561
   H       -8.44893         9.79479         2.38257
   H      -10.76490        11.25702         1.33344
   H       -7.88158        10.78287         0.38202
   H      -10.07900        12.62524        -0.74112
   H       -9.30454        13.68963        -3.05386
   H       -7.41671        13.45489        -4.79291
   H       -5.38788        12.73115        -6.05685
   H       -3.26814        11.48888        -6.83314
   H       -1.54890         9.77225        -6.01513
   H        0.75873         6.41959        -2.72651
   H       -1.82735         5.86480        -0.61867
*
