# ORCA input file
# SCF done       -199.694880901729          0.000489671403
! CAM-B3LYP def2-SVP def2/J RIJCOSX Grid4 TightSCF
%maxcore 5000
%tddft
    Mode sTDDFT
    Ethresh 5.0
    maxcore 5000
end

%pal
  nprocs 6
  end
* xyz 0 1
   C       -9.77991         1.09386         1.46753
   C       -9.42358         1.78705         2.59632
   C       -9.94631         1.51694         3.87848
   N      -10.35204         1.35162         4.93938
   C       -8.57556         2.91027         2.63331
   N       -7.92819         3.85270         2.75001
   C      -10.72295        -0.01525         1.42103
   C      -10.99466        -0.33119         0.06615
   C      -11.86304        -1.32957        -0.30119
   C      -12.47988        -2.06611         0.71573
   C      -12.19348        -1.75181         2.06717
   C      -11.32592        -0.73266         2.43849
   S      -13.05658        -2.78762         3.16124
   C      -13.78383        -3.61415         1.81082
   C      -13.39919        -3.14286         0.60052
  Br      -14.98255        -5.01598         2.12462
   C      -10.22022         0.56833        -0.80911
   O      -10.37043         0.73706        -1.99629
   C       -9.33967         1.34922         0.10800
   C       -8.35997         2.20511        -0.28481
   C       -7.81390         2.30076        -1.59092
   O       -7.18713         3.45868        -1.91618
   C       -7.66390         1.42131        -2.65201
   C       -7.85922         0.02848        -3.09048
   O       -8.29526        -0.93225        -2.51546
   N       -7.32612         0.01481        -4.37719
   C       -6.74385         1.20951        -4.79545
   O       -6.20726         1.39034        -5.85787
   C       -6.94533         2.10601        -3.65636
   C       -6.67391         3.37733        -3.16717
   C       -6.02405         4.52641        -3.66218
   C       -5.40923         4.69057        -4.86575
   C       -4.82834         5.93755        -5.19999
   S       -4.94315         7.22031        -4.03508
   C       -4.16163         6.37060        -6.35124
   C       -3.95009         5.46232        -7.51819
   C       -5.20756         5.35973        -8.39622
   N       -4.93261         4.47458        -9.51054
   C       -3.76472         7.71229        -6.28377
   C       -3.08601         8.46146        -7.38360
   C       -4.09921         9.25330        -8.22568
   N       -3.43119         9.80137        -9.39053
   C       -4.12346         8.34150        -5.07653
   C       -3.90976         9.66625        -4.66607
   C       -4.38390        10.21966        -3.49283
   C       -4.20513        11.53484        -2.99602
   C       -4.82373        11.78504        -1.80015
   C       -5.53189        10.67939        -1.29222
   S       -5.37234         9.31967        -2.37108
   C       -6.30920        10.46029        -0.16069
   C       -6.65611        11.25883         0.94340
   C       -7.47201        10.62425         1.84438
   C       -7.81885         9.30310         1.48611
   S       -7.04456         8.88020        -0.01731
   C       -8.64739         8.39797         2.13491
   C       -8.92270         7.16919         1.54674
   C       -9.70887         6.09099         1.89607
   C      -10.37056         5.64059         3.08949
   C      -10.12892         6.03117         4.38488
   C      -10.82328         5.53228         5.50476
   N      -11.37466         5.19672         6.45483
   C       -9.12784         6.93625         4.78455
   N       -8.32743         7.65096         5.19420
   C      -11.26907         4.54417         2.70752
   C      -11.09975         4.27546         1.32757
   C      -10.05063         5.16335         0.79533
   O       -9.56937         5.13566        -0.31933
   C      -11.81605         3.31579         0.65700
   C      -12.72855         2.55428         1.39412
   C      -12.85800         2.79190         2.78210
   C      -12.15097         3.78487         3.45321
   S      -14.00398         1.70725         3.50874
   C      -14.30951         0.98409         1.95222
   C      -13.58267         1.51214         0.94034
  Br      -15.56509        -0.39747         1.80211
   H      -12.05020        -1.54405        -1.34144
   H      -11.14026        -0.53305         3.48073
   H      -13.75259        -3.53486        -0.33530
   H       -7.92003         2.89413         0.42403
   H       -7.32550        -0.81715        -4.95003
   H       -6.05102         5.35438        -2.96450
   H       -5.36510         3.87672        -5.57576
   H       -3.70055         4.45835        -7.17441
   H       -3.12550         5.82078        -8.13488
   H       -5.51785         6.37430        -8.70337
   H       -6.02200         4.92389        -7.81218
   H       -4.26557         4.89673       -10.14769
   H       -5.77854         4.27072       -10.02886
   H       -2.56250         7.77748        -8.05018
   H       -2.34838         9.15254        -6.97027
   H       -4.58423        10.01306        -7.58809
   H       -4.87919         8.57404        -8.58034
   H       -2.73621        10.48735        -9.11507
   H       -4.09478        10.25862       -10.00494
   H       -3.33542        10.31051        -5.31740
   H       -3.62319        12.26323        -3.53382
   H       -4.79025        12.73094        -1.28914
   H       -6.30499        12.26997         1.05174
   H       -7.83647        11.07320         2.75136
   H       -9.08634         8.69598         3.07342
   H       -8.50920         7.03921         0.54656
   H      -11.67412         3.15224        -0.40022
   H      -12.30144         3.93317         4.50935
   H      -13.64409         1.18873        -0.08272
*
