# ORCA input file
# SCF done       -152.511753812319          0.000543010639
! CAM-B3LYP def2-SVP def2/J RIJCOSX Grid4 TightSCF
%maxcore 5000
%tddft
    Mode sTDDFT
    Ethresh 5.0
    maxcore 5000
end

%pal
  nprocs 6
  end
* xyz 0 1
   C        9.40107        -4.95291         3.55587
   C        9.48897        -4.86680         2.22117
   C       10.49991        -4.20701         1.44674
   C       10.32392        -4.29364         0.10895
   C        9.16832        -5.02263        -0.28491
   S        8.30354        -5.59699         1.12559
   C        8.73850        -5.27928        -1.56685
   C        9.34072        -4.88406        -2.78421
   C        8.66962        -5.30374        -3.89074
   C        7.49940        -6.05367        -3.61770
   S        7.28067        -6.20477        -1.88648
   C        6.65479        -6.58748        -4.56395
   C        5.49322        -7.32824        -4.34890
   S        4.89247        -7.72584        -2.77079
   C        3.53785        -8.62574        -3.38927
   C        3.52448        -8.58137        -4.79517
   C        4.63321        -7.86113        -5.33802
   C        4.77300        -7.72438        -6.72723
   C        3.82478        -8.26493        -7.55057
   F        3.94571        -8.13986        -8.88495
   C        2.70529        -8.93365        -7.01865
   F        1.76865        -9.41551        -7.85751
   C        2.54721        -9.09156        -5.67116
   C        2.68711        -9.24425        -2.44184
   C        1.78870       -10.23890        -2.64777
   C        0.97618       -10.75965        -1.59631
   C        0.10693       -11.78106        -1.71185
   C       -0.13644       -12.52625        -2.99047
   C       -0.71486       -12.23130        -0.53577
   N       -2.12118       -12.06353        -0.82489
   C       -3.09187       -12.99788        -0.66664
   C       -2.98235       -14.18438        -0.02739
   C       -4.07281       -15.08717         0.10105
   S       -3.88314       -16.54384         1.02636
   C       -5.51899       -17.07616         0.76319
   C       -6.17475       -16.13874        -0.02454
   C       -5.36882       -15.02270        -0.40283
   N       -5.87232       -14.03352        -1.19269
   C       -7.10868       -14.15695        -1.56987
   O       -7.68091       -13.24298        -2.36042
   C       -6.85225       -12.16058        -2.76005
   C       -7.64480       -11.28506        -3.71391
   C       -7.93283       -15.28389        -1.16697
   O       -9.19387       -15.29640        -1.60218
   C       -9.97749       -16.41180        -1.19494
   C      -11.36442       -16.25924        -1.79217
   N       -7.47335       -16.24141        -0.42155
   C       -6.11531       -18.26321         1.27381
   C       -5.56182       -19.22543         2.02986
   C       -4.13141       -19.22958         2.46526
   C       -6.38587       -20.39748         2.48790
   N       -5.78100       -21.63625         2.04472
   C       -6.10499       -22.83211         2.63793
   C       -5.99604       -24.02604         2.06516
   H       10.14300        -4.49498         4.18582
   H        8.59487        -5.47600         4.03633
   H       11.31514        -3.69754         1.92915
   H       10.98580        -3.85863        -0.61879
   H       10.24696        -4.30625        -2.80993
   H        8.97741        -5.09999        -4.90144
   H        6.92837        -6.40935        -5.59508
   H        5.60651        -7.19587        -7.15969
   H        1.66045        -9.57713        -5.30378
   H        2.82242        -8.89225        -1.42530
   H        1.68683       -10.69000        -3.62063
   H        1.08825       -10.28169        -0.63090
   H       -0.40457       -11.84829        -3.79988
   H       -0.94154       -13.24589        -2.86456
   H        0.76096       -13.06546        -3.29329
   H       -0.44200       -11.66220         0.36238
   H       -0.52634       -13.28972        -0.34130
   H       -2.36037       -11.22392        -1.32545
   H       -4.05135       -12.73392        -1.08622
   H       -2.05950       -14.49872         0.43801
   H       -5.94975       -12.55916        -3.24034
   H       -6.54221       -11.59936        -1.86929
   H       -7.94407       -11.86101        -4.58523
   H       -7.03712       -10.44328        -4.03357
   H       -8.53950       -10.91418        -3.22171
   H      -10.01432       -16.44103        -0.09928
   H       -9.49236       -17.33325        -1.53848
   H      -11.81934       -15.33510        -1.44632
   H      -11.98714       -17.09768        -1.49364
   H      -11.30195       -16.22870        -2.87651
   H       -7.15818       -18.34371         0.99184
   H       -3.89952       -20.15870         2.97865
   H       -3.92973       -18.39205         3.13397
   H       -3.46423       -19.12625         1.61004
   H       -7.42217       -20.29142         2.12890
   H       -6.41012       -20.41982         3.58417
   H       -5.63607       -21.68791         1.04547
   H       -6.41054       -22.73842         3.67251
   H       -5.69084       -24.13513         1.03840
   H       -6.18633       -24.92804         2.61469
*
