# ORCA input file
# SCF done       -178.545878974387          0.000319572128
! CAM-B3LYP def2-SVP def2/J RIJCOSX Grid4 TightSCF
%maxcore 5000
%tddft
    Mode sTDDFT
    Ethresh 5.0
    maxcore 5000
end

%pal
  nprocs 6
  end
* xyz 0 1
   C        5.75788         6.06775        -5.48252
   C        4.71315         6.94038        -5.35647
   F        4.77518         8.14131        -5.96579
   C        3.56674         6.63731        -4.61151
   C        3.48772         5.42363        -3.98560
   C        4.53541         4.48628        -4.08154
   C        5.69201         4.81323        -4.84648
   C        6.75268         3.88402        -4.96686
   C        6.65787         2.67409        -4.33685
   C        5.50630         2.35845        -3.55970
   C        4.46536         3.23040        -3.43452
   C        5.67818         1.01575        -2.96449
   O        4.88847         0.40345        -2.27669
   C        7.04854         0.59839        -3.33587
   C        7.55613         1.52205        -4.31272
   C        8.53275         1.26495        -5.24969
   C        9.13854         0.00434        -5.40264
   N        9.61705        -1.02419        -5.58830
   C        8.96101         2.19240        -6.21469
   N        9.37174         2.92042        -7.00362
   C        7.62905        -0.46963        -2.69320
   C        8.98428        -0.75883        -2.51119
   S       10.24473         0.41864        -2.71441
   C       11.49318        -0.65303        -2.17179
   C       10.95638        -1.92223        -1.87916
   C        9.53767        -1.96878        -2.03767
   C        8.83352        -3.15446        -1.77819
   C        9.52828        -4.26484        -1.38438
   F        8.87426        -5.40718        -1.12094
   C       10.93237        -4.23691        -1.27207
   F       11.58392        -5.36112        -0.92572
   C       11.64358        -3.09544        -1.51768
   C       12.80027        -0.11171        -2.09679
   C       13.86884        -0.61785        -1.43399
   C       15.17350        -0.02669        -1.35818
   C       15.78097         0.81420        -2.21455
   C       15.22746         1.26796        -3.52813
   C       17.15020         1.34729        -1.87605
   N       18.17291         0.70191        -2.67178
   C       19.42853         0.42743        -2.26655
   C       19.94759         0.64976        -1.02784
   C       21.27240         0.34156        -0.67420
   C       21.76482         0.46875         0.59985
   C       23.07920         0.22444         1.05932
   C       23.25192         0.40895         2.39944
   C       22.07887         0.79681         3.08154
   S       20.74976         0.95450         1.95760
   C       21.89892         1.00842         4.43614
   C       22.85003         0.93955         5.47364
   C       22.33181         1.16786         6.71397
   C       20.93824         1.42221         6.73369
   S       20.31783         1.38566         5.09309
   C       20.17817         1.64146         7.85553
   C       18.78918         1.85548         7.92339
   N       18.15506         2.02201         9.12959
   C       16.81524         2.19279         8.95590
   C       15.89121         2.37687        10.01606
   C       16.19854         2.42833        11.33561
   C       15.27095         2.60709        12.40063
   N       13.91792         2.74426        12.24435
   C       13.32853         2.89531        13.45369
   C       14.30435         2.85752        14.41998
   C       15.52707         2.67651        13.76460
   C       16.56911         2.14074         7.56403
   C       17.80164         1.93185         6.93892
   C       15.28194         2.27811         6.92539
   C       15.06843         2.21605         5.61434
   H        6.62422         6.33330        -6.06811
   H        2.77317         7.36488        -4.54790
   H        2.61398         5.16698        -3.40540
   H        7.61846         4.15691        -5.54942
   H        3.59589         2.96810        -2.85045
   H        6.92972        -1.11740        -2.17449
   H        7.76356        -3.20752        -1.89275
   H       12.71750        -3.12852        -1.46123
   H       12.89446         0.85659        -2.56591
   H       13.74081        -1.50175        -0.82710
   H       15.74035        -0.33071        -0.48568
   H       14.60232         0.50025        -3.97846
   H       16.03068         1.52037        -4.21898
   H       14.62385         2.16742        -3.39882
   H       17.36786         1.17343        -0.82231
   H       17.17251         2.43236        -2.05816
   H       17.92146         0.48559        -3.62252
   H       20.05350        -0.02618        -3.02494
   H       19.33571         1.07667        -0.24702
   H       21.94683        -0.01649        -1.44082
   H       23.85888        -0.08127         0.38351
   H       24.18456         0.26472         2.91508
   H       23.88618         0.72481         5.28159
   H       22.90785         1.15302         7.62285
   H       20.70970         1.63136         8.79984
   H       18.62038         2.00621        10.02109
   H       14.86053         2.48047         9.70874
   H       17.22604         2.33129        11.65864
   H       13.43591         2.73298        11.36199
   H       12.26745         3.01785        13.54859
   H       14.15282         2.94988        15.47696
   H       16.49314         2.60376        14.22389
   H       17.96530         1.84574         5.88531
   H       14.44110         2.44295         7.58675
   H       15.86718         2.05370         4.91204
   H       14.08138         2.32574         5.19950
*
