# ORCA input file
# SCF done       -210.747089271390          0.000595131884
! CAM-B3LYP def2-SVP def2/J RIJCOSX Grid4 TightSCF
%maxcore 5000
%tddft
    Mode sTDDFT
    Ethresh 5.0
    maxcore 5000
end

%pal
  nprocs 6
  end
* xyz 0 1
   C       -5.77584         4.27724        -5.17144
   C       -5.91198         5.61407        -5.43966
   C       -5.14686         6.30912        -6.40063
   N       -4.56624         6.95437        -7.15249
   C       -6.76387         6.53731        -4.79950
   N       -7.40583         7.38390        -4.36190
   C       -4.80342         3.41809        -5.83240
   C       -4.81898         2.15684        -5.19763
   C       -3.97887         1.12973        -5.55330
   C       -3.07686         1.35934        -6.59638
   C       -3.08339         2.61784        -7.24518
   C       -3.93435         3.65361        -6.88196
   S       -1.88656         2.69573        -8.49977
   C       -1.39251         1.06552        -8.13590
   C       -2.09255         0.48582        -7.13185
  Br       -0.00912         0.27943        -9.12270
   C       -5.82663         2.15562        -4.12429
   O       -6.01984         1.21681        -3.37622
   C       -6.48453         3.48423        -4.16844
   C       -7.59992         3.95726        -3.52636
   C       -8.47178         3.37210        -2.55991
   C       -8.11617         2.24067        -1.85592
   S       -9.26369         1.67562        -0.74785
   C      -10.32636         2.98183        -1.18490
   C       -9.79948         3.84200        -2.16009
   C      -10.62886         4.90688        -2.60104
   C      -10.13601         5.85719        -3.65856
   C      -10.17604         5.22649        -5.05298
   C      -11.91305         5.07230        -2.08384
   C      -12.83253         6.13387        -2.63239
   C      -12.66376         7.47074        -1.90372
   C      -12.39860         4.23561        -1.05164
   C      -13.65707         4.21371        -0.33101
   C      -13.71400         3.14906         0.52638
   S      -12.33125         2.13775         0.53396
   C      -11.58361         3.17009        -0.64220
   C      -14.74970         5.16325        -0.38422
   C      -16.01144         4.85628        -0.03020
   C      -17.11421         5.77132        -0.01483
   S      -17.22770         7.07955        -1.13860
   C      -18.76643         7.53047        -0.50546
   C      -19.17835         6.75213         0.52584
   C      -20.46962         6.96436         1.24053
   C      -18.22218         5.73215         0.84121
   C      -18.17090         4.86106         1.96577
   C      -19.01467         4.61933         3.00691
   C      -18.56930         3.81591         4.09600
   C      -17.23291         3.71526         4.37397
   C      -16.53432         2.81501         5.18469
   C      -15.15720         2.75666         5.09859
   C      -14.25410         1.81239         5.63050
   C      -12.96889         1.94421         5.17923
   C      -12.78162         3.02116         4.29291
   S      -14.27899         3.88157         4.06184
   C      -11.65541         3.40848         3.58284
   C      -11.55653         4.53514         2.74483
   C      -10.37134         4.62477         2.07284
   C       -9.48395         3.56211         2.34295
   S      -10.18217         2.47075         3.51377
   C       -8.24462         3.28744         1.77840
   C       -7.62337         4.14932         0.88924
   C       -6.47044         4.03451         0.13086
   C       -6.22508         5.15059        -0.80934
   O       -6.91385         6.14342        -0.94480
   C       -5.03301         4.78167        -1.58912
   C       -4.38301         5.49065        -2.55578
   C       -3.31408         4.88273        -3.25281
   C       -2.95971         3.54121        -2.93346
   C       -1.94402         2.91005        -3.67696
   C       -1.32440         3.59660        -4.68237
   C       -1.63984         4.92476        -4.99496
   C       -2.61905         5.55497        -4.27841
   F       -0.37977         2.97632        -5.42096
   C       -3.61961         2.85329        -1.88700
   C       -4.63056         3.47288        -1.20484
   C       -5.44370         3.04641        -0.05589
   C       -5.12122         1.94748         0.70854
   C       -5.66417         1.57583         1.95086
   N       -6.00307         1.20702         2.98585
   C       -4.08523         1.04349         0.39411
   N       -3.26883         0.25528         0.21386
   H       -4.01267         0.18376        -5.03589
   H       -3.89633         4.59033        -7.41096
   H       -1.91740        -0.51351        -6.77762
   H       -7.87717         4.95308        -3.82679
   H       -7.20259         1.69081        -1.96584
   H       -9.13408         6.19528        -3.39838
   H      -10.73817         6.76034        -3.67877
   H       -9.65703         4.27061        -5.07991
   H       -9.71521         5.89459        -5.77704
   H      -11.20719         5.05081        -5.35370
   H      -13.86067         5.78381        -2.53912
   H      -12.65539         6.27704        -3.69761
   H      -12.75142         7.34180        -0.82699
   H      -13.42080         8.17839        -2.23506
   H      -11.68347         7.89791        -2.09953
   H      -14.50621         2.91536         1.21001
   H      -14.53481         6.18185        -0.66203
   H      -16.24541         3.84186         0.26366
   H      -19.27865         8.36657        -0.93963
   H      -21.01568         7.78992         0.79081
   H      -20.28686         7.19683         2.28888
   H      -21.08598         6.06820         1.18631
   H      -17.23780         4.31732         2.00449
   H      -20.03283         4.97428         3.01836
   H      -19.30075         3.29112         4.69472
   H      -16.58680         4.39628         3.83288
   H      -17.05336         2.09834         5.80486
   H      -14.58120         1.04204         6.30652
   H      -12.15265         1.29805         5.45062
   H      -12.36587         5.23934         2.65403
   H      -10.13573         5.41170         1.37981
   H       -7.78035         2.35877         2.06272
   H       -8.13191         5.08824         0.68921
   H       -4.68922         6.49905        -2.79380
   H       -1.66394         1.89230        -3.45438
   H       -1.10985         5.42153        -5.79186
   H       -2.88122         6.57823        -4.50269
   H       -3.30930         1.84541        -1.66743
*
