# ORCA input file
# SCF done       -177.530164896209          0.001323591749
! CAM-B3LYP def2-SVP def2/J RIJCOSX Grid4 TightSCF
%maxcore 5000
%tddft
    Mode sTDDFT
    Ethresh 5.0
    maxcore 5000
end

%pal
  nprocs 6
  end
* xyz 0 1
   C      -15.99076       -11.28793        -1.96778
   C      -14.61277       -11.31459        -1.91750
   C      -13.81803       -12.31262        -2.50968
   N      -13.10802       -13.06276        -3.01347
   C      -13.79840       -10.36792        -1.27250
   N      -13.05208        -9.66681        -0.74720
   C      -16.83019       -12.37121        -2.47495
   C      -18.18768       -12.01096        -2.29539
   C      -19.22461       -12.83854        -2.64490
   C      -18.90750       -14.08273        -3.20338
   C      -17.54953       -14.43192        -3.38121
   C      -16.49872       -13.59475        -3.02271
   S      -17.38229       -16.01315        -4.08338
   C      -19.11716       -16.17992        -4.12760
   C      -19.78843       -15.10930        -3.64209
  Br      -19.87894       -17.75350        -4.80800
   C      -18.25582       -10.65991        -1.69374
   O      -19.26884       -10.05174        -1.40777
   C      -16.85548       -10.23088        -1.52744
   C      -16.46098        -8.96919        -1.11898
   C      -17.31425        -7.92615        -0.79159
   C      -16.85313        -6.64714        -0.52264
   C      -17.62250        -5.50392        -0.22715
   C      -16.88646        -4.36038        -0.06909
   C      -15.50441        -4.55582        -0.23491
   S      -15.15783        -6.23231        -0.57073
   C      -14.47279        -3.62434        -0.19213
   C      -14.52614        -2.24119         0.05533
   C      -13.30377        -1.62869        -0.00151
   C      -12.22981        -2.49604        -0.29660
   S      -12.83266        -4.12596        -0.49603
   C      -10.90209        -2.13109        -0.42436
   C       -9.82765        -2.97152        -0.71729
   N       -8.54556        -2.50824        -0.86170
   C       -7.68618        -3.53118        -1.16140
   C       -8.46883        -4.71155        -1.18484
   C       -9.76734        -4.37238        -0.91589
   C       -6.31444        -3.34112        -1.35059
   C       -5.41321        -4.29877        -1.77547
   C       -4.00662        -4.17676        -1.83325
   C       -3.35518        -5.30796        -2.24420
   C       -4.22095        -6.37274        -2.55411
   S       -5.88194        -5.88844        -2.32997
   C       -3.96016        -7.69072        -2.90131
   C       -2.76266        -8.42906        -2.92146
   C       -2.95585        -9.77002        -3.10199
   C       -4.31265       -10.15972        -3.22041
   S       -5.32246        -8.74264        -3.20530
   C       -4.77935       -11.45384        -3.37808
   C       -6.09093       -11.92225        -3.45723
   C       -7.31327       -11.36286        -3.13234
   C       -7.72528       -10.28574        -2.28638
   C       -7.04340        -9.78900        -1.19451
   C       -7.47545        -8.69442        -0.42656
   N       -7.75141        -7.76890         0.19690
   C       -5.85083       -10.35997        -0.71504
   N       -4.87766       -10.80620        -0.29869
   C       -9.08280        -9.90854        -2.67256
   C       -9.58756       -10.89265        -3.55790
   C       -8.52468       -11.88786        -3.82139
   O       -8.59315       -12.88613        -4.50146
   C      -10.85526       -10.83009        -4.07986
   C      -11.63980        -9.71800        -3.74867
   C      -11.11172        -8.72397        -2.89440
   C       -9.84393        -8.80984        -2.33083
   S      -12.22809        -7.41332        -2.66792
   C      -13.38256        -8.21657        -3.69194
   C      -12.95653        -9.40303        -4.18552
  Br      -15.04700        -7.41535        -4.02966
   H      -20.24958       -12.53921        -2.49155
   H      -15.47942       -13.90928        -3.17366
   H      -20.86004       -15.04404        -3.59351
   H      -15.39850        -8.75826        -1.08292
   H      -18.38034        -8.09889        -0.78032
   H      -18.69386        -5.55432        -0.14894
   H      -17.30648        -3.39516         0.15074
   H      -15.44885        -1.73183         0.26663
   H      -13.14882        -0.57629         0.16007
   H      -10.68165        -1.07930        -0.28681
   H       -8.27553        -1.54191        -0.77784
   H       -8.10319        -5.70708        -1.32527
   H      -10.58813        -5.05603        -0.85021
   H       -5.91269        -2.35905        -1.13282
   H       -3.50961        -3.26744        -1.54357
   H       -2.28687        -5.39810        -2.32553
   H       -1.80380        -7.96821        -2.76585
   H       -2.16569       -10.49939        -3.10861
   H       -4.00524       -12.19542        -3.53383
   H       -6.19706       -12.89433        -3.93305
   H      -11.23228       -11.60728        -4.72529
   H       -9.48707        -8.03608        -1.67217
   H      -13.53917       -10.03095        -4.83568
*
