# ORCA input file
# SCF done       -190.014169644305          0.000401563586
! CAM-B3LYP def2-SVP def2/J RIJCOSX Grid4 TightSCF
%maxcore 5000
%tddft
    Mode sTDDFT
    Ethresh 5.0
    maxcore 5000
end

%pal
  nprocs 6
  end
* xyz 0 1
   C       -8.78883         0.24522         1.77926
   C       -7.98095        -0.71947         2.33439
   C       -8.43078        -1.67044         3.26835
   N       -8.75366        -2.46615         4.03217
   C       -6.58878        -0.80387         2.12981
   N       -5.44453        -0.88319         2.06496
   C      -10.17390         0.50649         2.16563
   C      -10.56169         1.74540         1.60322
   C      -11.79546         2.30506         1.82090
   C      -12.70389         1.58849         2.60942
   C      -12.32515         0.32753         3.12118
   C      -11.06349        -0.22395         2.92669
   S      -13.62284        -0.42444         4.00014
   C      -14.62587         0.96812         3.70762
   C      -14.03350         1.93955         2.97587
  Br      -16.36499         0.99800         4.39543
   C       -9.44937         2.26837         0.77842
   O       -9.45553         3.33381         0.18350
   C       -8.39908         1.25431         0.82713
   C       -7.30838         1.13976        -0.02364
   C       -6.81744         2.05299        -0.94777
   S       -7.25274         3.73722        -0.89073
   C       -5.99805         4.20829        -1.99265
   C       -5.29685         3.06409        -2.46512
   C       -5.79887         1.84507        -1.92562
   C       -5.29946         0.62670        -2.43667
   C       -5.93214        -0.70952        -2.17562
   F       -7.27853        -0.66270        -2.15583
   F       -5.62761        -1.60006        -3.13708
   F       -5.55420        -1.29368        -1.02378
   C       -4.23447         0.65209        -3.31505
   C       -3.66904         1.84315        -3.75189
   C       -4.21162         3.05884        -3.37332
   O       -3.77236         4.25540        -3.82172
   C       -2.69234         4.29045        -4.72793
   C       -5.85137         5.55665        -2.33159
   C       -6.70098         6.48647        -1.76485
   C       -6.81352         7.85464        -1.93628
   C       -7.78869         8.54360        -1.21381
   C       -8.15719         9.89870        -1.22035
   C       -9.19244        10.20848        -0.36639
   C       -9.66962         9.10804         0.35625
   S       -8.78841         7.66881        -0.07759
   C      -10.66045         8.96513         1.32762
   C      -11.55367         9.87618         1.90936
   C      -12.36237         9.31327         2.86323
   C      -12.12368         7.94128         3.09451
   S      -10.87839         7.37501         2.01212
   C      -12.77931         7.14165         4.01172
   C      -12.50841         5.83325         4.41582
   S      -13.72297         5.07889         5.44944
   C      -12.81198         3.60948         5.66704
   C      -11.59996         3.71137         4.97233
   C      -11.44888         4.93248         4.26612
   S       -9.91357         5.00330         3.46637
   C       -9.50223         3.43384         4.07246
   C      -10.46128         2.86878         4.83555
   C      -13.29756         2.52875         6.43108
   S      -12.30214         1.11384         6.67728
   C      -13.56449         0.30653         7.55745
   C      -14.67256         1.12041         7.69196
   C      -14.53090         2.36695         7.05846
   C      -15.60398         3.40105         7.08128
   C      -16.92602         2.90191         7.67552
   C      -17.81740         4.10584         7.96880
   C      -16.64693         2.04183         8.91390
   C      -17.92025         1.63848         9.65207
   C      -15.89983         0.78044         8.47044
   C      -13.29900        -1.03475         8.00060
   C      -14.20157        -1.95913         8.32463
   H      -12.05542         3.26181         1.39474
   H      -10.81808        -1.18402         3.34922
   H      -14.51037         2.86320         2.70091
   H       -6.77454         0.20393         0.04808
   H       -3.83606        -0.27639        -3.69311
   H       -2.82983         1.79411        -4.42477
   H       -2.52690         5.34487        -4.94363
   H       -2.93162         3.76447        -5.65675
   H       -1.78589         3.86549        -4.28755
   H       -5.08786         5.84785        -3.03388
   H       -7.42045         6.06686        -1.06968
   H       -6.17565         8.39953        -2.61703
   H       -7.66346        10.61918        -1.84907
   H       -9.60177        11.19658        -0.24901
   H      -11.58346        10.91269         1.62417
   H      -13.10644         9.85557         3.42003
   H      -13.63535         7.59644         4.49655
   H       -8.54467         3.02548         3.81361
   H      -10.36190         1.89920         5.28477
   H      -15.78865         3.76164         6.06515
   H      -15.24760         4.26001         7.66159
   H      -17.42539         2.27234         6.93143
   H      -17.41427         4.68869         8.79481
   H      -18.82616         3.79423         8.22191
   H      -17.87334         4.74692         7.09186
   H      -16.00598         2.60922         9.59861
   H      -18.62476         1.17334         8.96579
   H      -18.39766         2.49868        10.11183
   H      -17.68552         0.92425        10.43868
   H      -16.56980         0.17779         7.84882
   H      -15.62137         0.18393         9.34222
   H      -12.24766        -1.29490         8.01938
   H      -15.26057        -1.78780         8.26769
   H      -13.89049        -2.94191         8.63308
*
