# ORCA input file
# SCF done       -190.384937416447          0.000462665808
! CAM-B3LYP def2-SVP def2/J RIJCOSX Grid4 TightSCF
%maxcore 5000
%tddft
    Mode sTDDFT
    Ethresh 5.0
    maxcore 5000
end

%pal
  nprocs 6
  end
* xyz 0 1
   C       -7.59507        -2.64496        -6.11989
   C       -6.56106        -3.01559        -6.94182
   C       -6.27646        -4.34843        -7.30637
   N       -5.98919        -5.41028        -7.63451
   C       -5.63291        -2.13094        -7.52865
   N       -4.84325        -1.47092        -8.03861
   C       -8.57350        -3.54576        -5.52489
   C       -9.47439        -2.79141        -4.73205
   C      -10.51579        -3.36468        -4.04405
   C      -10.68543        -4.74890        -4.15137
   C       -9.78095        -5.49543        -4.94535
   C       -8.72314        -4.91676        -5.63468
   S      -10.16959        -7.18838        -4.93622
   C      -11.52384        -6.87592        -3.88310
   C      -11.67854        -5.57124        -3.55332
  Br      -12.60216        -8.30057        -3.31657
   C       -9.09619        -1.36876        -4.77541
   O       -9.52843        -0.47969        -4.07947
   C       -7.94833        -1.29271        -5.72884
   C       -7.29749        -0.14416        -6.05554
   C       -7.83385         1.15702        -5.86757
   O       -6.98127         2.21688        -5.78984
   C       -9.12782         1.64241        -5.86312
   C      -10.54223         1.27389        -6.03385
   O      -11.06479         0.21802        -6.27094
   N      -11.20843         2.49198        -5.92869
   C      -10.39351         3.61117        -5.77154
   O      -10.77962         4.74696        -5.68794
   C       -9.03901         3.04832        -5.75466
   C       -7.69383         3.36861        -5.70569
   C       -7.04476         4.63020        -5.61620
   C       -5.70100         4.77167        -5.59107
   C       -5.04630         6.04074        -5.54835
   C       -3.71332         6.21665        -5.50817
   C       -2.72969         5.08616        -5.49189
   C       -3.11979         7.60191        -5.57389
   N       -2.56976         7.82534        -6.89432
   C       -3.22739         8.45166        -7.88558
   C       -2.89452         8.34097        -9.20275
   C       -3.51692         9.06359       -10.23028
   C       -3.24362         8.88985       -11.56519
   C       -3.80464         9.58131       -12.66229
   C       -3.35433         9.16123       -13.87954
   C       -2.42124         8.10467       -13.80933
   S       -2.10646         7.67869       -12.15057
   C       -1.82050         7.42104       -14.85631
   C       -1.96900         7.63484       -16.23881
   C       -1.26892         6.74849       -17.00948
   C       -0.54330         5.79081       -16.27190
   S       -0.74692         6.06965       -14.56152
   C        0.21802         4.75205       -16.78322
   C        0.84888         3.81168       -15.98373
   C        1.59156         2.70990       -16.36362
   C        1.76947         1.61012       -15.39201
   O        1.52948         1.64036       -14.20213
   C        2.25069         0.45958       -16.18421
   C        2.46533        -0.82774       -15.78968
   C        2.88153        -1.78187       -16.74663
   C        3.06653        -1.37535       -18.09910
   C        3.47018        -2.33212       -19.05005
   C        3.67623        -3.62495       -18.65617
   C        3.50081        -4.04423       -17.33150
   C        3.10905        -3.12742       -16.39533
   F        4.06180        -4.54197       -19.56595
   C        2.84627        -0.02841       -18.47619
   C        2.44754         0.87623       -17.53169
   C        2.15851         2.31038       -17.61832
   C        2.55193         3.12522       -18.65724
   C        2.53371         4.53189       -18.61838
   N        2.58728         5.67984       -18.63413
   C        3.12940         2.65269       -19.85025
   N        3.58512         2.32861       -20.85438
   H      -11.18391        -2.76114        -3.45052
   H       -8.06094        -5.52926        -6.22338
   H      -12.46023        -5.20244        -2.91471
   H       -6.31595        -0.17292        -6.50924
   H      -12.21426         2.56154        -5.99234
   H       -7.70533         5.48427        -5.57948
   H       -5.08831         3.88269        -5.62151
   H       -5.69361         6.90808        -5.55415
   H       -2.77751         4.51250        -6.41750
   H       -2.94547         4.40378        -4.67186
   H       -1.71415         5.45388        -5.36573
   H       -2.31512         7.70810        -4.83815
   H       -3.87703         8.36339        -5.38042
   H       -1.84723         7.17674        -7.17800
   H       -4.03478         9.10089        -7.57471
   H       -2.10730         7.65468        -9.48682
   H       -4.26566         9.79829        -9.96497
   H       -4.52435        10.36830       -12.52003
   H       -3.67483         9.57374       -14.81901
   H       -2.58241         8.42489       -16.63346
   H       -1.25502         6.75445       -18.08466
   H        0.26476         4.67516       -17.85911
   H        0.66258         3.87104       -14.91448
   H        2.31512        -1.11879       -14.76076
   H        3.61740        -2.04454       -20.07943
   H        3.67724        -5.07786       -17.07910
   H        2.96613        -3.42603       -15.36753
   H        2.98886         0.24722       -19.50898
*
