# ORCA input file
# SCF done       -184.486650457222          0.000421377457
! CAM-B3LYP def2-SVP def2/J RIJCOSX Grid4 TightSCF
%maxcore 5000
%tddft
    Mode sTDDFT
    Ethresh 5.0
    maxcore 5000
end

%pal
  nprocs 6
  end
* xyz 0 1
   C       -5.03683         5.49023         0.74725
   C       -3.95562         6.31654         0.57984
   C       -2.92049         6.46677         1.52524
   N       -2.04767         6.62486         2.25429
   C       -3.74269         7.14728        -0.53969
   N       -3.51413         7.86360        -1.40787
   C       -5.33231         4.70280         1.93645
   C       -6.59964         4.08949         1.77826
   C       -7.16516         3.29630         2.74636
   C       -6.44759         3.09966         3.93068
   C       -5.17827         3.70881         4.07710
   C       -4.60507         4.50888         3.09743
   S       -4.46082         3.32853         5.61395
   C       -5.85838         2.37402         6.03392
   C       -6.81325         2.33865         5.07447
  Br       -5.92498         1.51436         7.69955
   C       -7.15408         4.43210         0.45228
   O       -8.17840         4.00567        -0.03400
   C       -6.13943         5.31731        -0.18165
   C       -6.20570         5.75269        -1.46706
   C       -7.35240         5.62455        -2.32471
   C       -7.16074         5.11723        -3.58461
   S       -8.60078         4.74770        -4.42208
   C       -9.53756         5.37340        -3.09516
   C       -8.75045         5.85712        -2.04157
   C       -9.38459         6.51419        -0.95843
   C       -8.55321         7.31204         0.01306
   C       -7.80191         8.43992        -0.69680
   C      -10.77265         6.50111        -0.86232
   C      -11.46936         7.04307         0.35851
   C      -11.78940         8.53480         0.23035
   C      -11.56243         5.96397        -1.90740
   C      -12.99799         5.84866        -2.05108
   C      -13.34138         5.24931        -3.22622
   S      -12.01569         4.81407        -4.22982
   C      -10.91856         5.42335        -3.03284
   C      -14.02910         6.29163        -1.13239
   C      -15.14515         5.58714        -0.87451
   C      -16.14597         5.99519         0.05745
   S      -15.93198         7.41543         1.03940
   C      -17.38964         7.08536         1.88790
   C      -18.01050         5.95084         1.47398
   C      -19.31174         5.48960         2.04276
   C      -17.30458         5.31090         0.40563
   C      -17.74869         4.13867        -0.30179
   C      -18.37345         3.07326         0.24960
   C      -18.85070         1.94600        -0.47727
   C      -19.16643         1.94191        -1.80324
   C      -19.62565         0.81053        -2.49714
   C      -20.08049         0.82799        -3.79167
   C      -20.52044        -0.27728        -4.55965
   C      -20.95388         0.04323        -5.80991
   C      -20.89984         1.42528        -6.10018
   S      -20.23678         2.30305        -4.73859
   C      -21.32840         2.06554        -7.24568
   C      -21.85732         1.48278        -8.41898
   C      -22.23133         2.38668        -9.36459
   C      -22.03446         3.74268        -8.99571
   S      -21.31493         3.81308        -7.39610
   C      -22.37646         4.82715        -9.75863
   C      -22.26044         6.19076        -9.42924
   O      -22.71671         7.08758       -10.37186
   C      -22.53326         8.30479        -9.84125
   C      -22.71650         9.66698       -10.10195
   C      -22.24310        10.31151        -8.96924
   O      -21.78126         9.42297        -8.03407
   C      -21.95969         8.20458        -8.56649
   C      -21.77977         6.84750        -8.29434
   C      -22.19542        11.71930        -8.69580
   C      -21.72207        12.25023        -7.56902
   H       -8.13340         2.84537         2.59517
   H       -3.63384         4.94743         3.25423
   H       -7.73769         1.79841         5.16703
   H       -5.30855         6.13348        -1.93936
   H       -6.21659         4.85532        -4.02362
   H       -7.83866         6.67342         0.53396
   H       -9.18401         7.76084         0.77495
   H       -7.05037         8.05452        -1.38141
   H       -7.30002         9.06979         0.03477
   H       -8.49633         9.05461        -1.26531
   H      -10.85855         6.87328         1.24601
   H      -12.39009         6.47939         0.50751
   H      -10.87898         9.12901         0.22947
   H      -12.41278         8.85924         1.06070
   H      -12.31456         8.73843        -0.69996
   H      -14.33646         5.07157        -3.58490
   H      -13.90743         7.25192        -0.65554
   H      -15.29263         4.62071        -1.33655
   H      -17.71246         7.76708         2.65031
   H      -19.83734         6.32530         2.49933
   H      -19.15008         4.73400         2.81157
   H      -19.93532         5.05714         1.26310
   H      -17.52041         4.11573        -1.35919
   H      -18.47337         3.02213         1.32488
   H      -19.01483         1.03812         0.09004
   H      -19.09970         2.86231        -2.36908
   H      -19.63164        -0.14169        -1.98217
   H      -20.50189        -1.27613        -4.16005
   H      -21.32476        -0.67112        -6.52293
   H      -21.94521         0.41726        -8.53335
   H      -22.65573         2.12801       -10.31860
   H      -22.80983         4.62891       -10.72961
   H      -23.12832        10.13508       -10.97128
   H      -21.36990         6.39192        -7.41880
   H      -22.58276        12.34354        -9.48850
   H      -21.33788        11.62792        -6.77954
   H      -21.70884        13.31334        -7.40848
*
