# ORCA input file
# SCF done       -169.329686250061          0.000644633404
! CAM-B3LYP def2-SVP def2/J RIJCOSX Grid4 TightSCF
%maxcore 5000
%tddft
    Mode sTDDFT
    Ethresh 5.0
    maxcore 5000
end

%pal
  nprocs 6
  end
* xyz 0 1
   C        1.48515         2.31427         2.12843
   C        1.95600         2.93609         0.99644
   C        3.31781         3.01806         0.65332
   N        4.41625         3.13414         0.33748
   C        1.11031         3.47655         0.00930
   N        0.44664         3.88824        -0.83336
   C        2.27963         1.47465         3.01968
   C        1.39407         0.61884         3.73784
   C        1.85685        -0.30513         4.62831
   C        3.24927        -0.40970         4.85233
   C        4.13781         0.45033         4.14536
   C        3.62972         1.39422         3.22216
   C        5.52261         0.33759         4.38091
   C        6.00965        -0.58114         5.27060
   C        5.13419        -1.42698         5.96695
   C        3.78353        -1.34326         5.76162
   C        0.00248         0.93390         3.35969
   O       -1.01334         0.38166         3.72199
   C        0.10077         2.12731         2.48098
   C       -1.02169         2.87141         2.23175
   C       -1.12852         4.22299         1.87490
   S        0.15791         5.36670         2.08667
   C       -0.79649         6.71503         1.56831
   C       -2.10796         6.29685         1.26174
   C       -2.29040         4.89094         1.43661
   C       -3.52994         4.29375         1.15309
   C       -4.56624         5.08328         0.74026
   F       -5.76005         4.53735         0.46761
   C       -4.40485         6.47800         0.61133
   F       -5.45539         7.22717         0.23560
   C       -3.20615         7.08244         0.86701
   C       -0.13826         7.96592         1.51718
   C       -0.54521         9.11551         0.92141
   C        0.25814        10.29182         0.94137
   C       -0.03812        11.48841         0.39472
   C       -1.27209        11.81419        -0.37961
   C        0.97238        12.60620         0.45894
   N        1.64660        12.70842        -0.82029
   C        1.20407        13.50832        -1.81470
   C        1.47601        13.31261        -3.13431
   C        1.09828        14.20914        -4.14676
   C        1.31444        14.00119        -5.48511
   C        0.97329        14.86156        -6.55525
   C        1.30221        14.38347        -7.78741
   C        1.91562        13.11046        -7.76408
   S        2.07745        12.54497        -6.11911
   C        2.33940        12.35169        -8.83812
   C        2.28606        12.67877       -10.21064
   C        2.77365        11.70679       -11.02882
   C        3.23654        10.54994       -10.35021
   S        3.03799        10.75637        -8.62039
   C        3.75574         9.42789       -10.93957
   C        4.20183         8.25797       -10.30152
   S        4.18857         7.97445        -8.56790
   C        4.85101         6.39275        -8.69289
   C        5.08342         6.06793       -10.00885
   C        4.71699         7.12048       -10.90094
   O        4.95607         6.77363       -12.18350
   C        5.46936         5.51483       -12.12064
   N        5.82000         4.88806       -13.33772
   O        6.27940         3.76318       -13.25596
   O        5.64704         5.50400       -14.36805
   C        5.57407         5.02784       -10.84463
   H        1.17132        -0.95046         5.15726
   H        4.32225         2.04006         2.70484
   H        6.19293         0.98941         3.83983
   H        7.07278        -0.66122         5.44195
   H        5.53474        -2.14538         6.66660
   H        3.10451        -1.99252         6.29496
   H       -1.95651         2.36298         2.44630
   H       -3.67554         3.23106         1.25395
   H       -3.13872         8.15229         0.78046
   H        0.84149         7.96646         1.98221
   H       -1.47937         9.15170         0.38841
   H        1.19840        10.19904         1.47277
   H       -1.85616        10.93293        -0.62091
   H       -1.00564        12.31496        -1.31208
   H       -1.89944        12.49901         0.19277
   H        1.72103        12.41176         1.23170
   H        0.48789        13.56298         0.66705
   H        2.11924        11.86297        -1.11404
   H        0.64948        14.38065        -1.49352
   H        2.01207        12.42144        -3.43392
   H        0.59737        15.12478        -3.86029
   H        0.49569        15.80952        -6.37893
   H        1.11626        14.90555        -8.70860
   H        1.89266        13.61796       -10.55597
   H        2.81465        11.77525       -12.10134
   H        3.83276         9.41914       -12.01885
   H        5.02146         5.81302        -7.81024
   H        5.94923         4.06469       -10.56754
*
