# ORCA input file
# SCF done       -191.987487530368          0.000539667414
! CAM-B3LYP def2-SVP def2/J RIJCOSX Grid4 TightSCF
%maxcore 5000
%tddft
    Mode sTDDFT
    Ethresh 5.0
    maxcore 5000
end

%pal
  nprocs 6
  end
* xyz 0 1
   C        9.74350        -9.51328       -12.13537
   C        8.99523        -8.65198       -11.43416
   C        8.60753        -7.32028       -11.80791
   C        7.84475        -6.68483       -10.89380
   C        7.56641        -7.45337        -9.72531
   S        8.31872        -9.02986        -9.84098
   C        6.82140        -7.07461        -8.63710
   C        6.15367        -5.84024        -8.42166
   C        5.48405        -5.77611        -7.24597
   C        5.58268        -6.95280        -6.44398
   S        6.56806        -8.14404        -7.26951
   C        4.92385        -7.13945        -5.26484
   C        4.95801        -8.25145        -4.37883
   O        3.82136        -8.48289        -3.68142
   C        4.00859        -9.55996        -2.88110
   C        5.29537       -10.02216        -3.03291
   C        5.91262        -9.18657        -3.98709
   C        7.35573        -9.28108        -4.32058
   F        7.91139        -8.09968        -4.63348
   F        8.06085        -9.75309        -3.27419
   F        7.62779       -10.12066        -5.33897
   C        2.93299       -10.06515        -2.08593
   C        1.70516        -9.51850        -2.08066
   C        0.60522       -10.03365        -1.28752
   C        0.81949       -10.44078        -0.00457
   S       -0.58475       -10.98631         0.82148
   C       -1.52816       -10.70739        -0.60918
   C       -0.77920       -10.18668        -1.67569
   C       -1.42954        -9.95120        -2.91074
   C       -0.62759        -9.38259        -4.05170
   C       -0.60912        -7.85181        -4.00797
   C       -2.78397       -10.22132        -3.05801
   C       -3.48286        -9.93541        -4.36213
   C       -3.43157       -11.14097        -5.30609
   C       -3.52629       -10.77366        -1.98579
   C       -4.92356       -11.14369        -1.88240
   C       -5.24299       -11.56206        -0.61882
   S       -3.93260       -11.57801         0.48278
   C       -2.87699       -10.97802        -0.75842
   C       -5.91921       -11.17551        -2.92884
   C       -7.23914       -11.02553        -2.69694
   C       -8.25171       -11.12348        -3.69514
   S       -7.85237       -11.02728        -5.37713
   C       -9.51073       -11.18757        -5.81624
   C      -10.34211       -11.32742        -4.75533
   C      -11.81685       -11.48554        -4.91381
   C       -9.63264       -11.30298        -3.50731
   C      -10.12670       -11.52446        -2.19490
   C      -11.36758       -11.82127        -1.71723
   C      -11.58805       -12.10490        -0.34264
   C      -10.58455       -12.30615         0.56382
   C      -10.75068       -12.55607         1.93266
   C       -9.68070       -12.67713         2.79216
   C       -9.72457       -12.94632         4.21284
   C      -10.83965       -13.19297         4.97549
   C      -10.80964       -13.44670         6.36164
   N      -10.85415       -13.65683         7.48991
   C      -12.16528       -13.23891         4.49910
   N      -13.27120       -13.29944         4.19369
   C       -8.35186       -12.93029         4.71468
   C       -7.47816       -12.67249         3.63126
   C       -8.26734       -12.51025         2.39807
   O       -7.80375       -12.27578         1.29443
   C       -6.11440       -12.59297         3.77251
   C       -5.58341       -12.77867         5.05270
   C       -6.46125       -13.03729         6.13136
   C       -7.84173       -13.11674         5.98552
   S       -5.59379       -13.23582         7.62443
   C       -4.08624       -12.97034         6.78835
   C       -4.22158       -12.74592         5.46026
  Br       -2.47603       -13.01866         7.74929
   H       10.13379        -9.24376       -13.10087
   H        9.97700       -10.49297       -11.76078
   H        8.92204        -6.90126       -12.74732
   H        7.46644        -5.68447       -11.00800
   H        6.18777        -5.04398        -9.14345
   H        4.92027        -4.92406        -6.90934
   H        4.20207        -6.38270        -4.98480
   H        5.75331       -10.84322        -2.52108
   H        3.15362       -10.95752        -1.51938
   H        1.53941        -8.62911        -2.66781
   H        1.75021       -10.40713         0.52743
   H        0.39052        -9.76840        -3.99279
   H       -1.03151        -9.70698        -5.00871
   H       -0.28769        -7.49390        -3.03245
   H       -1.60321        -7.44962        -4.19131
   H        0.06606        -7.46029        -4.76590
   H       -3.03053        -9.07740        -4.85654
   H       -4.51874        -9.66501        -4.15563
   H       -2.41544       -11.31628        -5.65193
   H       -4.06554       -10.96953        -6.17353
   H       -3.76256       -12.04672        -4.80301
   H       -6.19222       -11.91756        -0.26789
   H       -5.59928       -11.39781        -3.93420
   H       -7.56244       -10.80836        -1.68944
   H       -9.77326       -11.17327        -6.85590
   H      -12.08777       -11.40622        -5.96402
   H      -12.34591       -10.71252        -4.35882
   H      -12.13638       -12.46053        -4.54815
   H       -9.35041       -11.47033        -1.44826
   H      -12.23161       -11.84293        -2.36128
   H      -12.61586       -12.18207        -0.00957
   H       -9.56250       -12.27904         0.22481
   H      -11.75750       -12.64364         2.31894
   H       -5.47567       -12.39316         2.92573
   H       -8.46528       -13.31416         6.84121
   H       -3.39973       -12.56415         4.79184
*
