# ORCA input file
# SCF done       -170.397711385411          0.000920190430
! CAM-B3LYP def2-SVP def2/J RIJCOSX Grid4 TightSCF
%maxcore 5000
%tddft
    Mode sTDDFT
    Ethresh 5.0
    maxcore 5000
end

%pal
  nprocs 6
  end
* xyz 0 1
   C        1.11632         1.06600         0.69155
   F        1.20751         1.83500        -0.38796
   C        1.09480         1.63999         1.96788
   C        1.07339         3.14074         2.11204
   O        0.65040         3.85202         1.24998
   O        1.55769         3.64347         3.25000
   C        1.02610         0.73841         3.03089
   F        1.00676         1.19497         4.29948
   C        0.96989        -0.62946         2.84337
   F        0.90206        -1.39840         3.94289
   C        0.99480        -1.22478         1.56742
   C        1.07767        -0.30639         0.50227
   F        1.10879        -0.74369        -0.76405
   C        0.93877        -2.64499         1.37704
   S        0.60165        -3.72009         2.73709
   C        0.68988        -5.08014         1.72223
   C        0.97703        -4.73129         0.39732
   C        1.11350        -3.36526         0.20112
   C        1.04373        -5.97936        -0.37792
   O        1.27604        -6.14759        -1.54945
   C        0.75656        -7.07038         0.63868
   C        0.55705        -6.48922         1.86696
   C        0.74653        -8.41871         0.22208
   C        0.48431        -9.47742         1.03858
   C        0.47346       -10.85119         0.71154
   S       -0.12966       -11.94611         1.92810
   C        0.13604       -13.33407         0.91604
   C        0.66200       -12.94203        -0.31443
   C        0.86497       -11.56055        -0.42449
   C        1.46988       -10.93946        -1.64428
   C        2.12470       -11.98636        -2.54081
   C        1.15417       -13.14683        -2.75409
   N        1.74927       -14.07030        -3.74918
   O        1.25981       -14.08189        -4.85121
   O        2.69982       -14.72551        -3.39580
   C        0.94243       -13.89023        -1.43858
   C       -0.20237       -14.59826         1.45976
   C        0.12358       -15.82886         0.98422
   C       -0.25713       -17.04337         1.60535
   S        0.32353       -18.55770         0.92081
   C       -0.48764       -19.44969         2.12897
   C       -1.17767       -18.61653         3.01449
   C       -1.05143       -17.26625         2.72526
   C       -1.83726       -19.48802         4.00634
   O       -2.53532       -19.18436         4.94128
   C       -1.44367       -20.89286         3.59602
   C       -0.64779       -20.81948         2.48047
   C       -1.89838       -22.00005         4.34905
   C       -1.59536       -23.29973         4.09926
   C       -2.04963       -24.40001         4.87401
   C       -2.86814       -24.41970         5.97448
   C       -3.09340       -25.71508         6.49394
   C       -2.41238       -26.71707         5.74934
   S       -1.52114       -26.01854         4.42851
   C       -2.47847       -28.05409         6.07424
   C       -3.24579       -28.41962         7.17748
   C       -3.92826       -27.42084         7.92076
   C       -3.86481       -26.08431         7.59769
   S       -4.81501       -28.12479         9.24805
   C       -4.27185       -29.70697         8.80082
   C       -3.46940       -29.72000         7.71649
   H        1.80349         2.98853         3.91687
   H        1.33886        -2.92446        -0.75083
   H        0.33813        -6.98873         2.79220
   H        0.94926        -8.55630        -0.82850
   H        0.22862        -9.26418         2.06894
   H        2.22092       -10.20489        -1.34836
   H        0.69109       -10.41411        -2.20595
   H        3.03438       -12.36966        -2.07383
   H        2.39248       -11.53158        -3.49630
   H        0.21318       -12.78621        -3.17933
   H        1.85374       -14.46013        -1.22488
   H        0.11180       -14.59458        -1.53631
   H       -0.75641       -14.54408         2.38732
   H        0.73571       -15.93643         0.10332
   H       -1.51240       -16.47981         3.29333
   H       -0.20807       -21.64159         1.94668
   H       -2.53101       -21.74393         5.18838
   H       -0.95763       -23.54459         3.26088
   H       -3.30146       -23.53603         6.40732
   H       -1.95331       -28.79851         5.49671
   H       -4.39018       -25.33989         8.17456
   H       -4.59520       -30.54201         9.39155
   H       -3.04010       -30.61250         7.29781
*
