# ORCA input file
# SCF done       -175.272235141510          0.000332103577
! CAM-B3LYP def2-SVP def2/J RIJCOSX Grid4 TightSCF
%maxcore 5000
%tddft
    Mode sTDDFT
    Ethresh 5.0
    maxcore 5000
end

%pal
  nprocs 6
  end
* xyz 0 1
   C      -20.11763        -8.30512        -3.97714
   C      -18.89901        -8.94247        -3.90034
   C      -18.66092       -10.25080        -4.36360
   N      -18.39471       -11.31082        -4.71891
   C      -17.71667        -8.40487        -3.35580
   N      -16.70565        -8.05335        -2.93576
   C      -21.33230        -8.88766        -4.54654
   C      -22.38046        -7.94179        -4.44123
   C      -23.65270        -8.19194        -4.89098
   C      -23.90543        -9.43838        -5.47564
   C      -22.85289       -10.37615        -5.57695
   C      -21.56438       -10.12236        -5.12052
   S      -23.38040       -11.85044        -6.33245
   C      -24.98668       -11.19322        -6.49912
   C      -25.12353        -9.93656        -6.01515
  Br      -26.33221       -12.22959        -7.29722
   C      -21.86378        -6.71413        -3.79695
   O      -22.50287        -5.70768        -3.55522
   C      -20.43990        -6.97826        -3.52474
   C      -19.57240        -6.07777        -2.93558
   C      -19.90641        -4.80049        -2.50417
   C      -18.98097        -3.94482        -1.93226
   C      -19.20832        -2.63308        -1.46240
   C      -18.09796        -2.02195        -0.95170
   C      -16.94187        -2.82571        -0.99534
   S      -17.30483        -4.38385        -1.70177
   C      -15.65755        -2.52101        -0.57303
   C      -15.17636        -1.32538         0.00229
   C      -13.84594        -1.35593         0.29577
   C      -13.19999        -2.57580        -0.02970
   S      -14.36798        -3.68500        -0.72416
   C      -11.86593        -2.84146         0.15838
   C      -11.16800        -4.02331        -0.14697
   C      -11.61152        -5.22281        -0.66402
   C      -10.59546        -6.17733        -0.83990
   C       -9.31511        -5.69106        -0.44357
   S       -9.42747        -4.05743         0.14688
   C       -8.17472        -6.44976        -0.54046
   C       -8.29112        -7.74945        -1.04841
   C       -9.57453        -8.23812        -1.43403
   C      -10.71458        -7.47998        -1.33972
   S       -9.46907        -9.87193        -2.02173
   C       -7.72511        -9.89499        -1.76846
   C       -7.27405        -8.70013        -1.25005
   C       -7.03310       -11.07289        -2.10981
   C       -5.68392       -11.30908        -2.07207
   C       -5.06681       -12.53508        -2.43829
   C       -3.71082       -12.53645        -2.34244
   C       -3.16748       -11.30911        -1.89671
   S       -4.44999       -10.15644        -1.59377
   C       -1.83914       -10.98754        -1.71066
   C       -0.70939       -11.81667        -1.90611
   C        0.47487       -11.20468        -1.64199
   C        0.35410        -9.85248        -1.22393
   S       -1.33900        -9.39434        -1.17648
   C        1.39099        -9.01878        -0.90574
   C        1.31377        -7.67375        -0.50277
   S       -0.16665        -6.74565        -0.32837
   C        0.64188        -5.30887         0.15325
   C        2.00271        -5.50551         0.18915
   C        2.36773        -6.83507        -0.18026
   O        3.70590        -6.99922        -0.13554
   C        4.19871        -5.79296         0.25704
   N        5.60246        -5.66964         0.39314
   O        6.01780        -4.58036         0.74153
   O        6.28477        -6.64286         0.15766
   C        3.23190        -4.84753         0.46976
   H      -24.43024        -7.45015        -4.79645
   H      -20.79751       -10.87171        -5.22216
   H      -26.04375        -9.38175        -6.03658
   H      -18.54217        -6.38219        -2.79578
   H      -20.92284        -4.45282        -2.61748
   H      -20.18265        -2.18097        -1.51615
   H      -18.08621        -1.02436        -0.55046
   H      -15.81710        -0.48079         0.18048
   H      -13.30265        -0.53844         0.73599
   H      -11.27647        -2.04048         0.58647
   H      -12.63713        -5.42448        -0.91089
   H       -7.21292        -6.06601        -0.23986
   H      -11.67670        -7.86276        -1.63997
   H       -6.24407        -8.50782        -1.01245
   H       -7.64760       -11.89361        -2.45758
   H       -5.65457       -13.37541        -2.76293
   H       -3.08810       -13.37899        -2.58291
   H       -0.80382       -12.83617        -2.23362
   H        1.43856       -11.67320        -1.73357
   H        2.39406        -9.42021        -0.96811
   H        0.07879        -4.42664         0.37535
   H        3.39707        -3.83713         0.78117
*
