# ORCA input file
# SCF done       -200.138490546311          0.000447721492
! CAM-B3LYP def2-SVP def2/J RIJCOSX Grid4 TightSCF
%maxcore 5000
%tddft
    Mode sTDDFT
    Ethresh 5.0
    maxcore 5000
end

%pal
  nprocs 6
  end
* xyz 0 1
   C       -9.71325         2.06495         5.64254
   C       -9.03484         1.06863         6.28284
   C       -9.56164         0.31020         7.35210
   N       -9.93815        -0.33586         8.22180
   C       -7.71497         0.67295         5.97112
   N       -6.64071         0.31871         5.78029
   C      -11.05457         2.53804         5.94322
   C      -11.38909         3.59833         5.05674
   C      -12.59318         4.25978         5.12138
   C      -13.51741         3.85124         6.08390
   C      -13.18131         2.78705         6.95897
   C      -11.96039         2.12645         6.90662
   S      -14.47211         2.45356         8.06883
   C      -15.43051         3.72471         7.34778
   C      -14.81627         4.37135         6.32806
  Br      -17.14414         4.06814         8.01635
   C      -10.28454         3.82367         4.12469
   O      -10.23895         4.58490         3.17881
   C       -9.21571         2.86418         4.52496
   C       -8.06162         2.77158         3.84777
   C       -7.77306         3.65741         2.72848
   C       -7.87930         3.37831         1.37829
   C       -8.43075         2.08519         0.92290
   O       -8.93298         1.33010         1.71837
   O       -8.36866         1.79634        -0.37293
   C       -7.47914         4.61389         0.76936
   N       -7.14717         5.47836         1.69780
   O       -7.32924         4.89735         2.89661
   C       -7.35606         4.93543        -0.64353
   C       -7.59940         6.13373        -1.22050
   O       -7.32985         6.37859        -2.55379
   C       -6.76541         5.35214        -3.25342
   C       -6.54176         4.07900        -2.66439
   C       -5.99163         3.18244        -3.51766
   S       -5.73431         3.88755        -5.06845
   C       -6.37733         5.40057        -4.55174
   O       -6.86612         3.83071        -1.35415
   C       -8.19295         7.32767        -0.64696
   C       -8.99672         7.46097         0.40749
   C       -9.58468         8.78675         0.76714
   C       -9.37784         9.05448         2.26808
   O       -8.35474         9.33953         2.80496
   O      -10.54621         8.94049         2.91852
   C      -11.60550         8.55496         2.05421
   C      -11.11533         8.92045         0.64302
   C      -11.81693         8.17305        -0.48573
   C      -11.93208         6.67053        -0.25724
   C      -12.52648         6.30987         1.09633
   C      -11.91996         7.06457         2.29002
   O      -12.91016         6.96384         3.31063
   C      -14.12074         6.69457         2.80668
   O      -15.08398         6.51874         3.49014
   C      -14.03106         6.59924         1.28098
   C      -14.89962         5.52028         0.75245
   C      -15.38944         5.30288        -0.47788
   C      -15.36001         6.01742        -1.75127
   C      -15.36367         7.36774        -1.96418
   C      -15.39053         7.96469        -3.24550
   N      -15.39106         8.51213        -4.25333
   C      -15.41261         8.35623        -0.96214
   N      -15.45745         9.21315        -0.19889
   C      -15.53735         5.02112        -2.80205
   C      -15.94138         3.79397        -2.21660
   C      -15.94832         3.93224        -0.75295
   O      -16.27034         3.11802         0.07470
   C      -16.23965         2.67880        -2.96321
   C      -16.12184         2.77336        -4.35295
   C      -15.69498         3.99638        -4.92909
   C      -15.40051         5.12468        -4.17524
   S      -15.60235         3.88872        -6.65933
   C      -16.13655         2.22982        -6.59028
   C      -16.36971         1.77660        -5.33452
  Br      -16.33164         1.25532        -8.17859
   H      -12.81470         5.08504         4.46824
   H      -11.74591         1.32734         7.59665
   H      -15.25172         5.17501         5.76022
   H       -7.31519         2.02099         4.06668
   H       -7.82883         2.44135        -0.87229
   H       -5.72786         2.16306        -3.32737
   H       -6.43242         6.23012        -5.22485
   H       -7.99852         8.19300        -1.26888
   H       -9.23118         6.63136         1.05478
   H       -9.07548         9.56417         0.19392
   H      -12.48505         9.14014         2.34473
   H      -11.31984         9.98804         0.50361
   H      -11.27487         8.35236        -1.41565
   H      -12.81250         8.60614        -0.60113
   H      -10.94396         6.21593        -0.33130
   H      -12.55101         6.23004        -1.04291
   H      -12.36612         5.23879         1.27203
   H      -11.02482         6.56598         2.67451
   H      -14.28062         7.57990         0.87199
   H      -15.10469         4.71949         1.45844
   H      -16.55393         1.76314        -2.48778
   H      -15.07129         6.02828        -4.66057
   H      -16.70286         0.78018        -5.10880
*
