# ORCA input file
# SCF done       -162.024129458329          0.000736741792
! CAM-B3LYP def2-SVP def2/J RIJCOSX Grid4 TightSCF
%maxcore 5000
%tddft
    Mode sTDDFT
    Ethresh 5.0
    maxcore 5000
end

%pal
  nprocs 6
  end
* xyz 0 1
   C       -3.46928         1.23501        -2.73380
   C       -2.91402         0.12149        -2.15218
   C       -2.25834        -0.89859        -2.87062
   N       -1.70819        -1.75831        -3.39707
   C       -2.93436        -0.18782        -0.77664
   N       -2.91855        -0.52941         0.32034
   C       -3.50173         1.50508        -4.16984
   C       -4.22616         2.70245        -4.38854
   C       -4.44158         3.22320        -5.64041
   C       -3.91251         2.52954        -6.73447
   C       -3.18752         1.33680        -6.50765
   C       -2.97237         0.80906        -5.23944
   S       -2.62012         0.64115        -7.99574
   C       -3.35394         1.94600        -8.88946
   C       -3.99269         2.85555        -8.11627
  Br       -3.21179         1.98271       -10.75961
   C       -4.66797         3.24037        -3.08846
   O       -5.32114         4.25732        -2.91761
   C       -4.15479         2.32236        -2.07218
   C       -4.25716         2.50307        -0.71118
   C       -4.91614         3.50015         0.00774
   S       -5.88641         4.81207        -0.60529
   C       -6.25539         5.35825         1.00225
   C       -5.61785         4.57684         1.97404
   C       -4.87881         3.53715         1.41972
   O       -4.11600         2.63518         2.07922
   S       -4.55465         2.20471         3.62765
   C       -4.47145         3.86307         4.35029
   S       -5.78068         4.94389         3.68828
   C       -7.07371         6.46993         1.26727
   C       -7.61112         7.26919         0.30119
   C       -8.39240         8.40334         0.58578
   O       -8.69901         8.71884         1.86912
   C       -9.39537         9.87697         1.86078
   C       -9.54741        10.31486         0.54281
   C       -8.91932         9.38013        -0.27372
   C       -8.80852         9.39497        -1.75556
   C       -9.82057        10.43739         3.07434
   C       -9.64605         9.82719         4.29336
   C       -9.99566        10.34851         5.56293
   C       -9.72253         9.51259         6.60235
   C       -9.16367         8.27573         6.20693
   S       -8.95418         8.22690         4.46982
   C       -8.82757         7.20709         7.01529
   C       -8.83673         7.15224         8.42822
   C       -8.44824         5.95228         8.93577
   C       -8.13237         4.97787         7.95232
   S       -8.32173         5.66716         6.34901
   C       -7.74241         3.69044         8.20422
   C       -7.49571         2.66998         7.26818
   S       -7.75278         2.79109         5.53522
   C       -7.26507         1.17526         5.22157
   C       -6.91293         0.53860         6.38899
   C       -7.05003         1.38508         7.53009
   O       -6.70124         0.73488         8.65918
   C       -6.34577        -0.51590         8.25354
   N       -5.93277        -1.43184         9.25123
   O       -5.63163        -2.54721         8.87180
   O       -5.90669        -1.04565        10.39981
   C       -6.44742        -0.70385         6.90166
   H       -4.99946         4.13688        -5.77302
   H       -2.41212        -0.10312        -5.12158
   H       -4.49985         3.72089        -8.50235
   H       -3.75762         1.78323        -0.07363
   H       -4.64233         3.77423         5.41879
   H       -3.49409         4.29317         4.14138
   H       -7.26480         6.69831         2.30821
   H       -7.41863         7.05682        -0.74034
   H      -10.05749        11.20529         0.23526
   H       -9.25046        10.30289        -2.15700
   H       -9.32325         8.53499        -2.18290
   H       -7.76448         9.34446        -2.06100
   H      -10.30554        11.40036         3.03520
   H      -10.43556        11.32495         5.66355
   H       -9.92712         9.74287         7.63239
   H       -9.11459         8.00068         9.02709
   H       -8.38638         5.72350         9.98484
   H       -7.61386         3.40029         9.23902
   H       -7.26616         0.79826         4.22069
   H       -6.21760        -1.60380         6.37034
*
