# ORCA input file
# SCF done       -195.430592976843          0.000457414872
! CAM-B3LYP def2-SVP def2/J RIJCOSX Grid4 TightSCF
%maxcore 5000
%tddft
    Mode sTDDFT
    Ethresh 5.0
    maxcore 5000
end

%pal
  nprocs 6
  end
* xyz 0 1
   C        0.53657         2.21040        -2.18698
   C        0.29053         0.87064        -1.97392
   C        1.29318        -0.08662        -1.72746
   N        2.05974        -0.91736        -1.52026
   C       -0.97604         0.25567        -1.96927
   N       -1.96539        -0.32984        -1.94787
   C        1.86292         2.82772        -2.19036
   C        1.71571         4.21297        -2.44371
   C        2.78254         5.07417        -2.50328
   C        4.06190         4.54307        -2.30208
   C        4.19994         3.15871        -2.05203
   C        3.11808         2.28670        -1.99288
   S        5.86499         2.71219        -1.83050
   C        6.34518         4.37084        -2.07278
   C        5.31450         5.21633        -2.30829
  Br        8.16259         4.82994        -1.99036
   C        0.28077         4.52545        -2.61355
   O       -0.19208         5.62190        -2.84602
   C       -0.42877         3.24419        -2.43760
   C       -1.80632         3.09621        -2.49107
   C       -2.70588         4.12392        -2.71994
   C       -4.08360         3.93691        -2.72909
   C       -5.06880         4.91697        -2.92418
   C       -6.35482         4.43728        -2.84919
   C       -6.42244         3.06252        -2.59590
   S       -4.82923         2.37723        -2.45934
   C       -7.56923         2.26960        -2.43383
   C       -8.90625         2.66613        -2.45776
   C       -9.78927         1.63121        -2.22171
   C       -9.17179         0.39922        -2.01347
   S       -7.44001         0.56075        -2.12476
   C       -9.79742        -0.82528        -1.71994
   C       -9.13275        -2.00275        -1.54404
   C       -9.73067        -3.22393        -1.18712
   C       -9.08512        -4.44224        -1.00169
   C       -9.92514        -5.46558        -0.60224
   C      -11.25144        -5.07005        -0.46322
   S      -11.43687        -3.38623        -0.86175
   C      -12.34089        -5.85039        -0.02609
   C      -12.32144        -7.17865         0.38700
   C      -13.55401        -7.64004         0.81007
   C      -14.56754        -6.68938         0.73407
   S      -13.94458        -5.18661         0.10711
   C      -15.90442        -6.86412         1.12910
   C      -16.89283        -5.92733         1.04865
   C      -18.19831        -6.14020         1.52653
   C      -19.27678        -5.25789         1.51578
   C      -20.41660        -5.75394         2.12200
   C      -20.25715        -7.04268         2.62546
   S      -18.64891        -7.63357         2.30344
   C      -21.13108        -7.84247         3.37729
   C      -22.39639        -7.57913         3.90785
   C      -22.85901        -8.57810         4.73559
   C      -21.96623        -9.64920         4.90645
   S      -20.56126        -9.39594         3.90885
   C      -22.15962       -10.79349         5.68287
   C      -21.25316       -11.81365         5.92830
   C      -19.87147       -11.83764         5.75864
   C      -18.88912       -10.80000         5.77325
   C      -18.97872        -9.57890         6.40869
   C      -17.95808        -8.61330         6.40097
   N      -17.16769        -7.77869         6.39497
   C      -20.10307        -9.17946         7.15161
   N      -21.00129        -8.81545         7.76847
   C      -17.69842       -11.31209         5.10185
   C      -17.85737       -12.70505         4.90615
   C      -19.19304       -13.10761         5.41621
   O      -19.65009       -14.22814         5.47778
   C      -16.91151       -13.46634         4.26672
   C      -15.77635       -12.81253         3.76684
   C      -15.64834       -11.41745         3.94500
   C      -16.58931       -10.64945         4.62105
   S      -14.20366       -10.80609         3.19748
   C      -13.79008       -12.41669         2.66903
   C      -14.68647       -13.36212         3.03380
  Br      -12.21863       -12.68228         1.67656
   H        2.63668         6.12521        -2.69767
   H        3.27838         1.23964        -1.79816
   H        5.43000         6.27120        -2.47856
   H       -2.21998         2.10771        -2.33381
   H       -2.33315         5.12414        -2.88829
   H       -4.81363         5.94518        -3.10837
   H       -7.23285         5.04573        -2.96942
   H       -9.20601         3.68288        -2.63500
   H      -10.85832         1.74648        -2.19447
   H      -10.87548        -0.80578        -1.61975
   H       -8.05704        -2.02019        -1.66852
   H       -8.02684        -4.55715        -1.15425
   H       -9.59573        -6.47006        -0.40943
   H      -11.42849        -7.77623         0.38333
   H      -13.72998        -8.63564         1.17642
   H      -16.14400        -7.83440         1.54774
   H      -16.67854        -4.95770         0.61792
   H      -19.20736        -4.27655         1.08065
   H      -21.33829        -5.20823         2.21353
   H      -22.93302        -6.67136         3.69902
   H      -23.79968        -8.54206         5.25509
   H      -23.16326       -10.92374         6.06678
   H      -21.67535       -12.77080         6.21943
   H      -17.04561       -14.52835         4.13356
   H      -16.45502        -9.58617         4.73006
   H      -14.58967       -14.40506         2.79272
*
