# ORCA input file
# SCF done       -164.361966396251          0.000734563248
! CAM-B3LYP def2-SVP def2/J RIJCOSX Grid4 TightSCF
%maxcore 5000
%tddft
    Mode sTDDFT
    Ethresh 5.0
    maxcore 5000
end

%pal
  nprocs 6
  end
* xyz 0 1
   C        5.03477        -3.10746         2.44233
   C        6.08028        -2.64173         1.66443
   C        7.09040        -3.44119         1.10591
   N        7.95708        -3.99992         0.59292
   C        6.30887        -1.30423         1.30192
   N        6.60099        -0.24588         0.95288
   C        4.84942        -4.50201         2.84163
   C        3.67074        -4.58765         3.63579
   C        3.24634        -5.76797         4.16714
   C        3.99813        -6.94314         3.92727
   C        5.17718        -6.86539         3.13431
   C        5.59041        -5.62341         2.59328
   C        5.91948        -8.04046         2.90644
   C        5.51977        -9.23751         3.43718
   C        4.35849        -9.31301         4.21814
   C        3.61350        -8.18927         4.45686
   C        3.07209        -3.23908         3.75488
   O        2.05402        -2.95068         4.35893
   C        3.96154        -2.34613         2.99942
   C        3.77502        -0.97598         2.85057
   C        2.74670        -0.21767         3.36752
   C        2.68020         1.15874         3.14016
   C        1.71524         2.07695         3.56943
   C        1.94830         3.37360         3.15972
   C        3.10771         3.51470         2.39738
   S        3.90596         1.97571         2.20215
   C        3.67598         4.65284         1.80863
   C        3.25247         5.98050         1.78373
   C        4.09913         6.81605         1.08297
   C        5.22146         6.18185         0.54092
   S        5.16840         4.48104         0.92905
   C        6.21974         6.79676        -0.22040
   C        7.37940         6.28517        -0.75137
   S        8.35414         7.38527        -1.76398
   C        9.60559         6.20313        -2.09631
   C        9.26960         5.00738        -1.41915
   C        8.05721         5.03929        -0.69902
   N        7.93031         3.80782        -0.15396
   N        8.95281         3.01465        -0.48040
   C        9.77307         3.70585        -1.23931
   C       10.70435         6.32729        -2.90840
   C       11.11026         7.40997        -3.68544
   C       12.13559         7.37317        -4.60749
   C       12.87227         6.26313        -5.04913
   C       13.91454         6.29091        -5.98517
   C       14.44843         5.05670        -6.29401
   C       13.83990         4.00278        -5.61270
   S       12.58061         4.61015        -4.57178
   C       14.08147         2.62483        -5.63316
   C       15.02042         1.88302        -6.35724
   C       14.95808         0.53221        -6.11229
   C       13.96922         0.15809        -5.18605
   S       13.11190         1.57578        -4.62969
   C       13.68178        -1.12775        -4.75255
   C       12.71293        -1.51506        -3.83986
   S       11.60917        -0.41330        -3.00860
   C       10.79522        -1.67735        -2.12619
   C       11.35808        -2.90914        -2.46001
   C       12.41385        -2.81501        -3.40266
   N       12.84419        -4.07787        -3.61528
   N       12.14283        -4.96282        -2.88020
   C       11.25546        -4.29842        -2.18613
   C        9.72428        -1.42667        -1.22390
   C        9.24465        -0.20927        -0.94336
   H        2.34954        -5.81004         4.76772
   H        6.48930        -5.59419         1.99697
   H        6.81413        -7.97742         2.30374
   H        6.09775       -10.13213         3.25755
   H        4.05622       -10.26454         4.63058
   H        2.71727        -8.24137         5.05841
   H        4.51509        -0.44412         2.26452
   H        1.97201        -0.68374         3.95777
   H        0.87253         1.77479         4.16551
   H        1.30943         4.20544         3.39844
   H        2.34879         6.30582         2.26660
   H        3.92977         7.87121         0.95794
   H        6.03889         7.84464        -0.42998
   H        7.19458         3.42945         0.42038
   H       10.67208         3.26847        -1.62456
   H       11.31156         5.43521        -2.92236
   H       10.57918         8.34494        -3.55937
   H       12.39958         8.30366        -5.09432
   H       14.25965         7.21375        -6.41804
   H       15.25212         4.90749        -6.99280
   H       15.71625         2.34298        -7.03583
   H       15.60102        -0.19461        -6.57719
   H       14.28412        -1.92124        -5.17861
   H       13.57848        -4.40832        -4.21862
   H       10.58131        -4.80298        -1.52502
   H        9.30226        -2.30917        -0.75906
   H        9.65675         0.68065        -1.39007
   H        8.42788        -0.06655        -0.25837
*
