# ORCA input file
# SCF done       -126.170929323193          0.000540638071
! CAM-B3LYP def2-SVP def2/J RIJCOSX Grid4 TightSCF
%maxcore 5000
%tddft
    Mode sTDDFT
    Ethresh 5.0
    maxcore 5000
end

%pal
  nprocs 6
  end
* xyz 0 1
   C        1.80520         2.78214        -0.72287
   S        2.41942         1.26671        -0.18046
   C        1.88551         0.46305        -1.63544
   C        1.26543         1.36304        -2.47728
   C        1.22443         2.67848        -1.94989
   S        0.45414         3.88378        -2.94937
   C        0.05099         2.79671        -4.26826
   S       -0.72585         3.29439        -5.60674
   S        0.54799         1.12460        -4.04103
   C        2.10248        -0.91973        -1.81852
   S        1.58587        -1.79116        -3.23393
   C        2.72897        -1.78907        -0.93663
   N        3.29257        -1.57972         0.28191
   C        3.76156        -2.66395         0.75966
   S        3.57824        -4.11394        -0.22316
   C        2.77959        -3.13094        -1.40518
   C        2.20107        -3.32735        -2.64610
   C        2.04127        -4.49051        -3.42638
   C        2.45443        -5.73066        -3.04642
   C        2.26121        -6.87709        -3.84159
   S        2.77882        -8.45036        -3.29230
   C        1.66702        -6.99699        -5.09650
   N        1.11053        -6.08329        -5.93701
   C        0.67665        -6.64023        -6.99886
   S        0.88447        -8.38353        -7.13307
   C        1.64090        -8.33347        -5.57740
   C        2.19909        -9.27452        -4.73042
   C        2.29971       -10.66355        -4.92743
   C        2.85082       -11.52815        -4.03253
   C        2.92203       -12.91842        -4.24573
   S        3.62727       -13.98235        -3.05990
   C        2.48045       -13.67108        -5.33274
   N        1.87356       -13.31538        -6.49651
   C        1.63747       -14.33382        -7.22508
   S        2.12713       -15.90042        -6.58714
   C        2.71278       -15.06694        -5.18569
   C        3.33137       -15.42906        -4.00342
   C        3.71798       -16.69312        -3.50259
   C        3.50905       -17.86657        -4.14850
   C        3.89223       -19.14276        -3.66143
   S        3.52597       -20.56503        -4.61065
   C        4.24470       -21.61787        -3.45752
   C        4.73976       -20.91999        -2.39882
   C        4.54510       -19.51826        -2.50386
   S        5.16033       -18.56656        -1.18198
   C        5.79754       -19.91049        -0.24921
   S        6.54863       -19.69680         1.17711
   S        5.56264       -21.49356        -0.97003
   H        1.90476         3.65625        -0.11351
   H        4.25096        -2.73049         1.71119
   H        1.54925        -4.37433        -4.38136
   H        2.94724        -5.87755        -2.09511
   H        0.20091        -6.10273        -7.79546
   H        1.89904       -11.04803        -5.85614
   H        3.25490       -11.15210        -3.10176
   H        1.16426       -14.28039        -8.18564
   H        4.20543       -16.68404        -2.53810
   H        3.01372       -17.86871        -5.10936
   H        4.26208       -22.67517        -3.62106
*
