# ORCA input file
# SCF done       -176.911314137939          0.000693249104
! CAM-B3LYP def2-SVP def2/J RIJCOSX Grid4 TightSCF
%maxcore 5000
%tddft
    Mode sTDDFT
    Ethresh 5.0
    maxcore 5000
end

%pal
  nprocs 6
  end
* xyz 0 1
   C        1.20596         5.75368        -1.75121
   S        0.05786         6.45389        -2.84021
   C       -1.18477         5.48675        -2.17158
   C       -0.71225         4.66531        -1.15411
   C        0.66173         4.82140        -0.91576
   C       -1.85346         3.88363        -0.65581
   O       -1.89324         3.05225         0.21664
   C       -3.03068         4.35061        -1.49942
   C       -2.58576         5.29910        -2.38266
   C       -4.31128         3.79742        -1.28789
   C       -5.43891         4.13445        -1.97519
   C       -6.71314         3.57029        -1.76045
   S       -8.06439         4.11051        -2.74692
   C       -9.12309         3.03641        -1.93904
   C       -8.45609         2.29847        -0.94997
   C       -7.10973         2.59181        -0.84546
   C       -9.45881         1.40979        -0.32342
   O       -9.31565         0.61223         0.56964
   C      -10.74268         1.71409        -1.05762
   C      -10.49202         2.68708        -2.00391
   C      -11.92613         1.02688        -0.72454
   C      -13.12959         1.21112        -1.34190
   C      -14.35972         0.56395        -1.10704
   N      -14.69090        -0.38963        -0.16925
   C      -13.85342        -0.97232         0.84362
   C      -16.04052        -0.79082        -0.27425
   O      -16.55807        -1.59888         0.46519
   C      -16.55337        -0.02372        -1.38768
   C      -15.51120         0.80906        -1.86116
   C      -16.02638         1.60040        -2.94783
   O      -15.52080         2.41652        -3.69043
   N      -17.38693         1.21091        -3.04027
   C      -18.21989         1.68017        -4.11190
   C      -17.70016         0.25149        -2.11534
   C      -18.97487        -0.39115        -1.96854
   S      -18.99278        -2.11935        -1.90961
   C      -20.72144        -2.12431        -1.68354
   C      -21.22650        -0.82505        -1.62826
   C      -20.23679         0.15465        -1.78434
   C      -20.50650         1.62417        -1.62256
   C      -19.41068         2.29031        -0.83848
   C      -18.90897         3.47917        -1.11329
   C      -21.85076         1.81377        -0.90133
   C      -22.93352         0.99093        -1.58861
   C      -22.66536        -0.49851        -1.38592
   C      -21.44649        -3.32569        -1.56900
   C      -20.89779        -4.57388        -1.64698
   C      -21.68681        -5.73053        -1.55065
   C      -21.21420        -7.01685        -1.64068
   C      -22.01057        -8.22276        -1.53964
   C      -23.35501        -8.29990        -1.80571
   N      -24.18226        -9.42666        -1.54547
   O      -25.20069        -9.53044        -2.19797
   O      -23.82056       -10.21593        -0.69284
   N      -24.05892        -7.21974        -2.47937
   O      -23.57211        -6.80795        -3.50782
   O      -25.07119        -6.81107        -1.96274
   C      -21.09326        -9.31087        -1.25369
   C      -21.12804       -10.64517        -0.97418
   S      -19.54162       -11.30085        -0.87370
   C      -18.80650        -9.77511        -1.20780
   C      -19.75004        -8.81807        -1.37860
   C      -19.76882        -7.37539        -1.66200
   O      -18.82052        -6.64720        -1.84360
   H        2.22556         6.08089        -1.80013
   H        1.22070         4.28156        -0.17380
   H       -3.16656         5.82526        -3.11736
   H       -4.35639         3.04843        -0.50877
   H       -5.37676         4.88613        -2.75029
   H       -6.43615         2.12948        -0.14827
   H      -11.20464         3.11576        -2.68426
   H      -11.80710         0.31102         0.07474
   H      -13.19049         1.93522        -2.14400
   H      -13.03070        -1.53613         0.40038
   H      -14.48655        -1.65822         1.40929
   H      -13.46197        -0.20981         1.51900
   H      -17.57003         1.91945        -4.95478
   H      -18.75315         2.58857        -3.82560
   H      -18.93328         0.90851        -4.39831
   H      -20.58697         2.09399        -2.60983
   H      -19.06907         1.73887         0.02766
   H      -19.24150         4.06140        -1.95775
   H      -18.14446         3.92839        -0.50370
   H      -22.10981         2.87324        -0.90790
   H      -21.75356         1.49635         0.13897
   H      -23.91401         1.24237        -1.18248
   H      -22.94269         1.22323        -2.65568
   H      -23.30087        -1.08871        -2.04997
   H      -22.91800        -0.77848        -0.35804
   H      -22.51641        -3.23237        -1.42778
   H      -19.83498        -4.68547        -1.80627
   H      -22.73951        -5.57008        -1.34772
   H      -21.97297       -11.27706        -0.78761
   H      -17.73985        -9.68657        -1.25695
*
