# ORCA input file
# SCF done       -213.053134431270          0.000236383885
! CAM-B3LYP def2-SVP def2/J RIJCOSX Grid4 TightSCF
%maxcore 5000
%tddft
    Mode sTDDFT
    Ethresh 5.0
    maxcore 5000
end

%pal
  nprocs 6
  end
* xyz 0 1
   C       -7.07796         4.49929        -8.00424
   C       -6.45698         3.32823        -8.36016
   C       -6.15917         2.96138        -9.68893
   N       -5.88787         2.60273       -10.74548
   C       -6.03882         2.31508        -7.47299
   N       -5.67202         1.43967        -6.82589
   C       -7.53265         5.52641        -8.93660
   C       -8.18019         6.55186        -8.20559
   C       -8.71949         7.66393        -8.80488
   C       -8.61005         7.77373       -10.19499
   C       -7.95822         6.74638       -10.91763
   C       -7.41699         5.61953       -10.31129
   S       -7.92727         7.08489       -12.62193
   C       -8.77813         8.58138       -12.34351
   C       -9.07238         8.81722       -11.04305
  Br       -9.19457         9.69110       -13.79701
   C       -8.15257         6.22095        -6.76669
   O       -8.63021         6.88604        -5.87066
   C       -7.42212         4.93469        -6.66592
   C       -7.10166         4.30733        -5.49028
   C       -7.45094         4.77855        -4.21113
   C       -7.06060         4.14136        -3.06994
   C       -7.38385         4.60389        -1.77957
   O       -8.14789         5.71137        -1.59937
   C       -8.28129         5.93326        -0.27034
   C       -7.58656         4.94632         0.42994
   C       -7.01546         4.09274        -0.53082
   O       -6.26111         3.00339        -0.31419
   O       -7.44456         4.76972         1.76855
   C       -9.04343         7.02891         0.20198
   C       -9.71656         7.87838        -0.61973
   C      -10.48615         8.96841        -0.15758
   C      -11.20416         9.77436        -0.98315
   C      -11.99111        10.86387        -0.54840
   S      -12.09995        11.39307         1.10024
   C      -13.21689        12.67565         0.71288
   C      -13.48332        12.67513        -0.65367
   C      -12.79539        11.67323        -1.35022
   O      -12.84460        11.43037        -2.68939
   C      -13.54216        12.13130        -3.59069
   O      -13.48881        11.81952        -4.74676
   C      -14.40958        13.31747        -3.18579
   O      -15.02679        13.93856        -4.00284
   S      -14.54476        13.80520        -1.48311
   C      -13.66520        13.50694         1.76481
   C      -14.61029        14.47766         1.68132
   C      -14.99008        15.30931         2.76058
   S      -14.19055        15.24428         4.30244
   C      -15.18497        16.53258         4.92447
   C      -16.09066        16.97355         3.95934
   C      -15.98845        16.28201         2.74995
   C      -16.86190        16.57626         1.57033
   C      -18.08556        17.38344         1.99363
   C      -17.65790        18.56706         2.85639
   C      -18.79092        19.52729         3.11410
   O      -19.87977        19.46896         2.62172
   C      -17.08275        18.07102         4.18911
   C      -15.01128        17.03105         6.23062
   C      -14.05445        16.59861         7.09898
   C      -13.87793        17.16204         8.37597
   C      -12.85464        16.93235         9.25259
   C      -11.59450        16.24431         9.09741
   C      -10.86656        16.10963         7.94113
   C       -9.62908        15.43936         7.86635
   N       -8.63415        14.87977         7.74139
   C      -11.20004        16.71700         6.71271
   N      -11.38139        17.23284         5.70306
   C      -11.11104        15.91909        10.43712
   C      -11.92867        16.58097        11.38805
   C      -13.01290        17.29547        10.68275
   O      -13.87715        17.99330        11.16424
   C      -11.69365        16.51049        12.73925
   C      -10.60808        15.74238        13.17432
   C       -9.80753        15.07349        12.21823
   C      -10.03952        15.15119        10.85018
   S       -8.52780        14.17332        12.97378
   C       -9.07450        14.70477        14.54217
   C      -10.16052        15.51258        14.50429
  Br       -8.16101        14.14024        16.07990
   H       -9.20858         8.42664        -8.21944
   H       -6.92951         4.86657       -10.90737
   H       -9.59321         9.68996       -10.69367
   H       -6.52709         3.39076        -5.52737
   H       -8.03838         5.68110        -4.13596
   H       -6.46419         3.24038        -3.10813
   H       -6.16006         2.87967         0.63927
   H       -7.90607         5.46716         2.24616
   H       -9.08368         7.17149         1.27418
   H       -9.67019         7.70778        -1.68590
   H      -10.50906         9.15993         0.90869
   H      -11.20823         9.59311        -2.04928
   H      -13.19326        13.32594         2.72239
   H      -15.11970        14.65615         0.74692
   H      -17.17765        15.64582         1.09519
   H      -16.28327        17.14101         0.83199
   H      -18.76790        16.75338         2.56737
   H      -18.62307        17.74153         1.11542
   H      -16.87933        19.13646         2.33201
   H      -18.52565        20.33205         3.82993
   H      -17.89692        17.68861         4.81451
   H      -16.61260        18.89782         4.72594
   H      -15.66042        17.84237         6.53286
   H      -13.40916        15.78760         6.79184
   H      -14.66601        17.80781         8.74979
   H      -12.32600        17.03248        13.44009
   H       -9.40444        14.62127        10.15974
   H      -10.62837        15.93032        15.37697
*
