# ORCA input file
# SCF done       -178.105041928011          0.000528596271
! CAM-B3LYP def2-SVP def2/J RIJCOSX Grid4 TightSCF
%maxcore 5000
%tddft
    Mode sTDDFT
    Ethresh 5.0
    maxcore 5000
end

%pal
  nprocs 6
  end
* xyz 0 1
   C       -1.28693         4.84693        -0.55660
   C       -0.21134         4.86488         0.28402
   C        0.30865         6.05657         0.84163
   N        0.67126         6.99909         1.38620
   C        0.42249         3.72207         0.82161
   N        0.93432         2.82801         1.32705
   C       -2.00008         6.02569        -1.03393
   C       -3.24694         5.62325        -1.57374
   C       -4.16110         6.52080        -2.07380
   C       -3.82220         7.87647        -2.05468
   C       -2.56346         8.26691        -1.53462
   C       -1.64302         7.36165        -1.02255
   S       -2.34519         9.98818        -1.61604
   C       -3.92618        10.15896        -2.33231
   C       -4.58470         8.98836        -2.50608
  Br       -4.55862        11.86488        -2.78704
   C       -3.36626         4.15707        -1.49205
   O       -4.34487         3.49033        -1.75356
   C       -2.04995         3.67664        -0.99067
   C       -1.67027         2.38082        -0.90977
   C       -2.46984         1.22905        -1.21276
   C       -3.40691         0.91553        -2.38057
   N       -4.06713        -0.19913        -2.22036
   C       -3.65188        -0.70060        -1.01938
   C       -3.78193        -1.59951        -0.01483
   S       -2.52007        -0.88249         1.04468
   C       -2.62459         0.14553        -0.43218
   C       -3.49886         1.72633        -3.55410
   C       -4.51959         1.67537        -4.42958
   C       -5.69212         0.77504        -4.26421
   C       -4.58980         2.57258        -5.64648
   N       -3.34357         3.16946        -6.04155
   C       -2.47471         2.56379        -6.87601
   C       -1.14768         2.85718        -6.91971
   C       -0.21614         2.27290        -7.79409
   C        1.13812         2.40853        -7.61391
   C        2.20721         1.86538        -8.36203
   C        3.44232         2.09072        -7.82354
   C        3.41136         2.81570        -6.61446
   S        1.77797         3.26486        -6.21445
   C        4.42677         3.12416        -5.72170
   C        5.80047         2.83234        -5.75127
   C        6.46444         3.20583        -4.61196
   C        5.64388         3.80048        -3.63324
   S        4.00745         3.92397        -4.22232
   C        5.98196         4.21336        -2.35122
   C        5.01350         4.70239        -1.49165
   C        5.05196         5.08680        -0.16356
   C        3.75988         5.16339         0.53991
   O        2.65398         5.09295         0.02950
   C        4.08555         5.29736         1.97114
   C        3.25219         5.33493         3.04993
   C        3.80876         5.44264         4.34480
   C        5.22334         5.50054         4.49393
   C        5.77193         5.60376         5.78723
   C        4.95324         5.65157         6.88090
   C        3.55465         5.59605         6.73192
   C        2.99223         5.49291         5.49039
   F        2.77434         5.64526         7.82405
   F        5.47873         5.75256         8.11222
   C        6.06199         5.46154         3.35453
   C        5.50143         5.36825         2.11053
   C        6.10516         5.34075         0.77400
   C        7.41592         5.66871         0.50722
   C        7.94479         5.90695        -0.77426
   N        8.43671         6.15940        -1.78195
   C        8.38715         5.90870         1.49747
   N        9.23409         6.09495         2.25174
   H       -5.10956         6.18647        -2.46480
   H       -0.69472         7.70311        -0.64272
   H       -5.56870         8.91150        -2.93129
   H       -0.69772         2.15172        -0.48959
   H       -4.40824        -2.44424         0.19287
   H       -2.68441         2.42454        -3.69432
   H       -5.96869         0.70906        -3.21489
   H       -5.42836        -0.23492        -4.57529
   H       -6.53818         1.11900        -4.85439
   H       -5.31305         3.37134        -5.43921
   H       -4.97121         1.98957        -6.49024
   H       -2.95079         3.83940        -5.39468
   H       -2.90285         1.82418        -7.53873
   H       -0.75602         3.55848        -6.19313
   H       -0.56974         1.65899        -8.61077
   H        2.03337         1.31296        -9.26888
   H        4.36460         1.73872        -8.24980
   H        6.26524         2.34863        -6.59213
   H        7.51665         3.05800        -4.44609
   H        7.00878         4.09468        -2.04543
   H        3.99728         4.70117        -1.88309
   H        2.18211         5.28843         2.92357
   H        6.84174         5.65013         5.91891
   H        1.91899         5.45172         5.39036
   H        7.12931         5.50232         3.50067
*
