# ORCA input file
# SCF done       -152.308413064438          0.000564380118
! CAM-B3LYP def2-SVP def2/J RIJCOSX Grid4 TightSCF
%maxcore 5000
%tddft
    Mode sTDDFT
    Ethresh 5.0
    maxcore 5000
end

%pal
  nprocs 6
  end
* xyz 0 1
   C       -2.55645        -0.25621         1.95369
   C       -1.32501        -0.45459         2.44081
   C       -0.63760         0.31668         3.43768
   C        0.60271        -0.12735         3.73335
   C        1.00173        -1.28363         3.00368
   S       -0.27793        -1.78118         1.91131
   C        2.19012        -1.96104         3.10197
   C        3.29726        -1.67734         3.94227
   C        4.32839        -2.55201         3.82879
   C        4.10777        -3.59341         2.88783
   S        2.51997        -3.39164         2.13794
   C        4.94458        -4.62343         2.58690
   N        4.63606        -5.57962         1.67031
   C        5.35389        -6.68418         1.38172
   S        6.82332        -7.04677         2.23226
   C        6.95967        -8.52650         1.32627
   N        8.04708        -9.34595         1.58181
   O        8.13354       -10.39411         0.95418
   O        8.85138        -8.96848         2.42556
   C        5.93850        -8.71233         0.43045
   C        4.99973        -7.66489         0.43225
   C        3.85036        -7.58056        -0.41307
   C        3.40656        -8.59791        -1.19878
   C        2.29810        -8.52084        -2.05915
   C        1.84031        -9.58945        -2.78795
   C        0.75045        -9.62350        -3.69257
   C        0.51999       -10.84409        -4.25101
   C        1.40938       -11.85119        -3.81429
   S        2.56913       -11.18501        -2.68313
   C        1.42196       -13.19028        -4.14272
   C        0.56102       -13.89725        -5.01293
   C        0.81170       -15.23245        -5.08710
   C        1.89004       -15.66559        -4.27429
   S        2.58895       -14.28284        -3.42580
   C        2.34963       -16.93825        -4.10794
   N        3.38891       -17.24257        -3.29039
   C        3.85767       -18.47771        -3.00189
   S        3.10278       -19.89626        -3.65857
   C        4.24224       -20.88040        -2.79078
   N        4.12715       -22.25826        -2.93548
   O        4.91804       -22.96812        -2.33530
   O        3.22782       -22.66037        -3.66299
   C        5.13827       -20.15334        -2.05054
   C        4.94316       -18.76479        -2.15546
   C        5.73600       -17.75557        -1.51196
   C        6.72190       -17.99523        -0.62366
   C        7.51462       -16.98700        -0.01330
   S        7.35360       -15.28318        -0.35270
   C        8.65821       -14.86643         0.72173
   C        9.14827       -15.99810         1.33206
   C        8.51472       -17.19478         0.91836
   O        8.82868       -18.42491         1.37584
   S       10.39932       -16.06557         2.58585
   C        9.02947       -13.48136         0.85064
   C       10.23226       -13.01568         1.18216
   H       -3.16045         0.56112         2.30586
   H       -2.97968        -0.90008         1.20472
   H       -1.10930         1.17163         3.88856
   H        1.25510         0.32998         4.45594
   H        3.29235        -0.83395         4.60869
   H        5.24391        -2.49576         4.38974
   H        5.89760        -4.72057         3.08443
   H        3.75198        -5.46632         1.18521
   H        5.89829        -9.57632        -0.20641
   H        3.30447        -6.64577        -0.42849
   H        3.91883        -9.54984        -1.16988
   H        1.77315        -7.58001        -2.15618
   H        0.17096        -8.74105        -3.89984
   H       -0.26590       -11.04921        -4.95588
   H       -0.22143       -13.39822        -5.55559
   H        0.25625       -15.92629        -5.69205
   H        1.88349       -17.76219        -4.62701
   H        3.84124       -16.46154        -2.82581
   H        5.90569       -20.62601        -1.46648
   H        5.53176       -16.72295        -1.76704
   H        6.97006       -19.00022        -0.31554
   H        9.51954       -18.34734         2.04849
   H       10.19875       -14.82926         3.03178
   H        8.24801       -12.77175         0.61432
   H       11.08875       -13.64669         1.35058
   H       10.39408       -11.95471         1.24273
*
