# ORCA input file
# SCF done       -158.881623575249          0.000897735676
! CAM-B3LYP def2-SVP def2/J RIJCOSX Grid4 TightSCF
%maxcore 5000
%tddft
    Mode sTDDFT
    Ethresh 5.0
    maxcore 5000
end

%pal
  nprocs 6
  end
* xyz 0 1
   C        7.75631        -6.61329        -7.78944
   C        6.75556        -7.45568        -8.07216
   C        5.58515        -7.18358        -8.85915
   C        4.73141        -8.22376        -8.96111
   C        5.15127        -9.39966        -8.26892
   S        6.69787        -9.13001        -7.49401
   C        4.49843       -10.60282        -8.19623
   C        3.30809       -10.99623        -8.86258
   C        2.95252       -12.28651        -8.65345
   C        3.81941       -12.99992        -7.77358
   S        5.12541       -11.93853        -7.23937
   C        3.69401       -14.30708        -7.42418
   N        4.42616       -14.94158        -6.43775
   C        4.83459       -14.35293        -5.28519
   S        6.29155       -14.86622        -4.49222
   C        6.01712       -13.69002        -3.24223
   N        6.88897       -13.64225        -2.16967
   O        6.62529       -12.86854        -1.25610
   O        7.87850       -14.36234        -2.20683
   C        4.88662       -12.93616        -3.45601
   C        4.19341       -13.30678        -4.61038
   C        2.93245       -12.72470        -5.03862
   C        2.74823       -11.40076        -5.00171
   N        1.65698       -10.68178        -5.42602
   C        0.43312       -11.10954        -5.81343
   S       -0.16571       -12.70841        -5.53356
   C       -1.72428       -12.22342        -6.13635
   N       -2.72289       -13.18834        -6.18522
   O       -3.82091       -12.85593        -6.60148
   O       -2.42135       -14.31252        -5.80857
   C       -1.76300       -10.91174        -6.53911
   C       -0.53288       -10.26220        -6.37917
   C       -0.21111        -8.91712        -6.79900
   C       -1.09056        -7.91202        -6.89942
   N       -0.78913        -6.62640        -7.31688
   C        0.45306        -6.15005        -7.63178
   S        0.64231        -5.18475        -9.06647
   C        2.34770        -5.08013        -8.76081
   N        3.12007        -4.33100        -9.64462
   O        4.32733        -4.29898        -9.45700
   O        2.53696        -3.77031       -10.55850
   C        2.73396        -5.74565        -7.62630
   C        1.65856        -6.34960        -6.94775
   C        1.76141        -6.96607        -5.65037
   C        2.89615        -7.51544        -5.14785
   C        3.02475        -7.98783        -3.82185
   C        4.14082        -8.61125        -3.33017
   C        4.37684        -9.01670        -1.98808
   C        5.57549        -9.62354        -1.78666
   C        6.34956        -9.77874        -2.96326
   S        5.51332        -9.06903        -4.33471
   C        7.55075       -10.42819        -3.10162
   C        8.37983       -10.93220        -2.05463
   C        9.47390       -11.59238        -2.48781
   C        9.59849       -11.66297        -3.91702
   S        8.24294       -10.79733        -4.66499
   C       10.55320       -12.27282        -4.62863
   H        7.74180        -5.60610        -8.16720
   H        8.59381        -6.91088        -7.18508
   H        5.44496        -6.21107        -9.29853
   H        3.80386        -8.19924        -9.50608
   H        2.76548       -10.31617        -9.49478
   H        2.08905       -12.76114        -9.08452
   H        2.97602       -14.92962        -7.94018
   H        4.74430       -15.88414        -6.61861
   H        4.56021       -12.18087        -2.76471
   H        2.19728       -13.40280        -5.44129
   H        3.55052       -10.76862        -4.65398
   H        1.79122        -9.67582        -5.45066
   H       -2.64640       -10.46669        -6.95787
   H        0.82046        -8.74646        -7.06951
   H       -2.13132        -8.04742        -6.64706
   H       -1.56156        -6.10956        -7.71464
   H        3.74969        -5.74841        -7.27646
   H        0.86509        -6.95198        -5.04462
   H        3.77383        -7.59679        -5.77773
   H        2.20429        -7.81502        -3.13791
   H        3.64895        -8.83433        -1.21730
   H        5.91235       -10.01178        -0.84285
   H        8.12311       -10.78928        -1.02131
   H       10.20653       -12.05429        -1.85126
   H       11.35116       -12.79862        -4.13515
   H       10.54862       -12.26744        -5.70352
*
