77
 SCF done       -152.672021312026          0.000298777278
C          -1.33878742006821   -0.77742230602475    0.95539983547271
C          -0.86733922288740    0.35987541664196    1.58989186030714
C          -0.72973870185954    0.33898726780935    2.97948898704275
C          -0.25386611986682    1.49394338084218    3.64849920224992
N           0.13005245112498    2.43004153596741    4.18410926087504
C          -1.05723950428991   -0.80644781995067    3.72978687831649
C          -0.91006218120973   -0.79839715948186    5.13752160708387
N          -0.80056099183789   -0.81530812127374    6.27733251632545
C          -1.53065310137605   -1.95071047994742    3.08598314363669
C          -1.66413225764423   -1.91655575198870    1.71466981458985
C          -2.15171679922277   -2.98962968637203    0.81664356601831
O          -2.50466049850260   -4.09726895851926    1.16111342696546
C          -2.11321695712240   -2.41275933631941   -0.54526931554992
C          -1.59659448412619   -1.06375573331947   -0.45837465815063
C          -1.37125749056801   -0.18892149523395   -1.48988244315637
C          -0.86050822827378    1.11680092876267   -1.32607714087067
N          -0.45056953806216    2.18664183903026   -1.26023903887854
C          -1.60474779744265   -0.45273438466462   -2.85656006502213
N          -1.76523505055503   -0.58707670363875   -3.98543879567889
C          -2.53291099734276   -3.06372922631387   -1.68044372893022
C          -3.04707251509416   -4.37048017012570   -1.70831105621858
C          -3.50101292623652   -4.94086542675334   -2.86814050920824
C          -4.07187090948677   -6.22715925739669   -2.98941889610534
C          -4.13034145106227   -7.14986619419712   -1.98287538453301
C          -4.74996079663127   -8.42017936248555   -2.06144683382686
C          -4.68497923700299   -9.29230149921489   -0.93397503874990
C          -5.31288045748312  -10.57851316518436   -0.90422418969166
N          -5.21327569752410  -11.33878743752886    0.20655050671604
C          -4.52951136742549  -10.88800202457008    1.22034337110050
C          -3.90400939909465   -9.62553947823347    1.18595746745131
N          -3.99165042942992   -8.85669758797086    0.13835419615826
C          -6.05604755277990  -11.06646794671590   -2.01591138215302
C          -6.11436335753501  -10.20222869202159   -3.13547889685163
C          -5.47242202186352   -8.91150655938332   -3.17233281758191
N          -5.67463154741534   -8.29981304878780   -4.34257848426284
S          -6.56662906667412   -9.24120982550716   -5.28543497913658
N          -6.75392670255286  -10.46896446288842   -4.27743808421403
C          -6.74159651189062  -12.30502453093367   -2.09453153842956
C          -6.74576269663273  -13.31457448308798   -1.17657580022520
C          -7.47858788234970  -14.49947105679471   -1.38154943011838
C          -7.49500954857663  -15.53374387498652   -0.48764898353512
C          -8.26070541812855  -16.71149387851464   -0.59897707596432
C          -8.88573439778720  -17.28057619782485   -1.67771519794117
C          -9.99077901553784  -18.24092122432574   -1.41811103272834
O         -10.27964008520170  -18.75319371187425   -0.36284206849282
C         -10.69116849147969  -18.38905783077335   -2.71596527108390
C         -11.86342604540222  -19.05954093832627   -2.99139178270462
C         -12.35544647255171  -19.01445220717885   -4.29747730672089
C         -11.66192401618652  -18.29658501852981   -5.29028490179453
C         -10.46736126059350  -17.63240582513380   -5.00250138758728
C          -9.98116403179301  -17.68582238823815   -3.70819189126149
C          -8.77284151379166  -17.11316466280870   -3.10692053603862
C          -7.66168600024122  -16.72973528400028   -3.81353832712560
C          -6.43022328791200  -16.39893626124172   -3.21328514210354
N          -5.40526183217834  -16.14049889812678   -2.76723353882668
C          -7.59830345997908  -16.68791380988262   -5.22164510577127
N          -7.50418650034818  -16.61697377357144   -6.36312001898149
C         -12.18890832767963  -18.23824586960583   -6.60439519113449
N         -12.61026675484539  -18.17740947267432   -7.66711554908892
C         -13.56079800745511  -19.68256937242939   -4.62178655873952
N         -14.53907653456327  -20.22606160218963   -4.86408392120553
H          -0.60645738576678    1.25724626989442    1.05222696855388
H          -1.78775792221475   -2.83777438604497    3.64478912038309
H          -2.48395370995745   -2.53887830984338   -2.62599123723474
H          -3.09751939675600   -4.91146609937383   -0.77641550810226
H          -3.44896286127429   -4.34906023933141   -3.77478522166479
H          -4.49038216695273   -6.49264793165709   -3.95018563812952
H          -3.67570596261645   -6.94179477902662   -1.02454590280398
H          -4.47322250012481  -11.52734779552232    2.09079743584571
H          -3.33846329544651   -9.24386934897900    2.02455355758095
H          -7.30504198419255  -12.43429449054640   -3.01158851476338
H          -6.16017149884036  -13.21647671215844   -0.27559899251761
H          -8.09409299883244  -14.55196670882281   -2.27114500817714
H          -6.94101156917873  -15.41108129741264    0.43360224753464
H          -8.46827495577194  -17.22710890253913    0.33516483556609
H         -12.38802817273440  -19.60038552369031   -2.21852618560432
H          -9.96473522650204  -17.08802269033324   -5.78640829576019
