105
 SCF done       -205.858918513225          0.000920517547
C           5.52975054830780   -3.59202726063758    6.43288804183485
C           6.51140120015354   -3.11698980594516    7.28563422139740
C           6.99026473791521   -3.96477200663178    8.28762067245107
C           7.98512708781537   -3.49317398431059    9.17929337482689
N           8.78614482768705   -3.10471166316379    9.89916104195534
C           6.49903802298545   -5.27576991237987    8.43356063668249
C           7.00132479546602   -6.10978455005910    9.46077980667631
N           7.39205836835329   -6.79985934278625   10.28702826341648
C           5.51030083245652   -5.75174067050273    7.57026946071566
C           5.04227066898895   -4.90277983383986    6.59142413823842
C           3.99004349563573   -5.15706564382668    5.58231964216822
O           3.38152227677934   -6.20058714206392    5.43616145228067
C           3.84348118110154   -3.91011185174227    4.83105170416810
C           4.81976760237375   -2.95964484025362    5.31720515969129
C           5.07379241190902   -1.69828329474917    4.84145126765616
C           6.05424157087949   -0.83401616773377    5.37331106706304
N           6.83182832787576   -0.08466224812652    5.76202451850427
C           4.41560275868422   -1.08077376424320    3.75723393081678
N           3.93185577072498   -0.50899596907640    2.88624421941017
C           2.88035845246785   -3.65787255302712    3.87859216025072
C           1.84951205343899   -4.46730136701098    3.39659278430482
C           0.86025758604252   -3.97115036696091    2.52808967727083
C          -0.12811350208554   -4.87677012606470    2.23154945447519
C           0.11139950458422   -6.11669078589260    2.85274121437432
S           1.53599278455149   -6.14336879160432    3.80459315970374
C          -0.87978733181009   -7.10924510678648    2.71087983861325
C          -2.04983812080559   -6.76733708399948    2.02054624051929
Ge         -1.85417732729612   -4.94774876030579    1.28061631775526
C          -3.19572128909891   -3.66186303346377    1.97092932823958
C          -1.67119149780023   -4.94620090091869   -0.69315157066579
C          -2.99685712119003   -7.77246515023270    2.08549203260506
C          -2.55683443072702   -8.88917283165129    2.79075142195909
S          -0.92243551613359   -8.70187766312788    3.36838192834458
C          -3.27883132986460  -10.04444315399693    3.13348575694498
C          -2.74429333928851  -11.21295581192103    3.69005638465047
C          -3.74152958934259  -12.18200322243352    4.05357213072300
N          -3.39086161608120  -13.33986043062129    4.61585218826451
C          -2.10551005532311  -13.55063782098329    4.80499227851238
C          -1.72994279036339  -14.83912876736191    5.43705755380272
O          -2.55497039821087  -15.65637220658653    5.79240540676059
C          -0.28342017308271  -15.05050472725878    5.60761405818234
C           0.64380964577551  -14.15925259041607    5.24106635744988
C           0.33195568371574  -12.85899858490433    4.62107830352068
O           1.19546464087399  -12.07294770312387    4.29374803329150
C          -1.11393607640320  -12.59108596037275    4.42494094421249
N          -1.44560515119331  -11.43977538527951    3.88125657979028
C          -5.04831461904223  -11.73902252369099    3.79755146199069
S          -5.00833163487781  -10.16903272144633    3.04704276028519
C          -6.23896630272465  -12.36234066066527    4.20872455904919
C          -6.35069520581559  -13.60995027758084    4.81866683325914
C          -7.62735082148318  -13.87482848815984    5.27884149051927
C          -8.51407113151926  -12.82487802237906    5.02091188891214
S          -7.77254783551470  -11.52530462131341    4.16392762900420
C          -9.80481628499438  -12.90647715314837    5.57590856801450
C         -10.09821753722717  -14.02638805121017    6.36743070813145
Ge         -8.56351234018081  -15.27246812131085    6.31423172846093
C          -8.97726901802049  -16.88400614868971    5.24299160336096
C          -7.71256406736724  -15.61666156172932    8.06947059248871
C         -11.35625795572997  -13.95005507744539    6.92505433607617
C         -12.05622714322160  -12.78883855745162    6.58571375564843
S         -11.08749813373782  -11.77011360163431    5.53756275579854
C         -13.29055146060807  -12.29956972980059    7.02976498397814
C         -14.27529686079455  -12.90778304781008    7.76747867249169
C         -15.20792959553652  -12.04568299525489    8.53111989956210
O         -15.35438430126107  -10.84975013967956    8.42770144501540
C         -15.87908716229764  -12.95658292293906    9.49037824764096
C         -16.73959141863072  -12.64139580790093   10.51902694078970
C         -17.20388240723043  -13.67979941383894   11.32972146035023
C         -16.79353455027361  -15.00403299537119   11.08687797588187
C         -15.93248005782003  -15.31346976936232   10.03084669823195
C         -15.47686087534291  -14.28110055538008    9.23105231278681
C         -14.58573696249590  -14.28043004392405    8.06656138157364
C         -14.32280881658203  -15.37675030310208    7.28232401378613
C         -14.73068996223076  -16.68766361715232    7.59901978992588
N         -15.01934226381485  -17.77523850341165    7.82562415669919
C         -13.67726147097707  -15.29885274288897    6.03268775464764
N         -13.16827159619159  -15.27378562499903    5.00401022732254
C         -17.25426772687547  -16.04181122239212   11.93415977433304
N         -17.61525247503108  -16.88723199418780   12.61695114105669
C         -18.07952429948276  -13.39717892263394   12.40529212832030
N         -18.78443576755448  -13.14758696163723   13.27246079161823
H           6.91245934949341   -2.11916077461621    7.20895817482323
H           5.11958378106995   -6.75318815059984    7.66816303483578
H           2.87072088642028   -2.66132536662289    3.45373696934384
H           0.88659598224014   -2.95824142714046    2.16374427412747
H          -3.25718180556305   -3.72344961237808    3.05292562166085
H          -4.17323443201782   -3.88046430297800    1.55196234142042
H          -2.92035571465789   -2.64901328323687    1.69352170453305
H          -0.92778089425077   -5.67412124028937   -1.00280644110531
H          -1.36316008468763   -3.96405649989108   -1.03839560425342
H          -2.61991829697380   -5.19478307815539   -1.15894708879141
H          -3.97991177903293   -7.71991473720823    1.64990289943250
H          -0.00867139702383  -15.99363956901568    6.06054993498260
H           1.69805181100909  -14.35397112621954    5.38513743692535
H          -5.50021945550227  -14.25790354354435    4.93636867347996
H          -9.50765342158769  -16.60531128573516    4.33749249073452
H          -9.60222404256284  -17.56257474606303    5.81562821562170
H          -8.06023766832848  -17.39858984165304    4.97284880981444
H          -7.56963381921155  -14.68804365427826    8.61333259425424
H          -6.74390057845306  -16.08246186154356    7.91508206422435
H          -8.32710308920310  -16.28398847263172    8.66595012769205
H         -11.74014906147845  -14.68131724554922    7.61426486114716
H         -13.46430648308915  -11.24105828114048    6.85724478539901
H         -17.04195762736076  -11.62051973672641   10.69637534920659
H         -15.63520228994939  -16.33868842257422    9.87540572809075
