85
 SCF done       -179.045772594252          0.000782103163
C           0.13952215039051   -4.50855975385940   -5.65771895014553
C           1.15658078790033   -4.09516565647055   -6.50221468554375
C           2.43549812697162   -4.62334379428019   -6.31273827244354
C           3.49112589231062   -4.20784263427908   -7.16244613087091
N           4.33848750084361   -3.86587775980293   -7.85171078510101
C           2.69801633356927   -5.55780068660561   -5.29281658882751
C           4.00457255617062   -6.07855288267983   -5.12826339934939
N           5.05190974935255   -6.51725653763730   -4.98172891168996
C           1.67172571512609   -5.96988748059312   -4.44165493512980
C           0.41491933426560   -5.43793912337742   -4.63644580576836
C          -0.81928980050289   -5.70454602783143   -3.86887987478691
O          -0.92072543418059   -6.44708084666605   -2.91260071860288
C          -1.86987993467076   -4.89301880660409   -4.49960813836634
C          -1.27964738602347   -4.15114414209730   -5.60059354604458
C          -1.90407111971705   -3.27577400832854   -6.44780802973948
C          -1.25629972885129   -2.59258722046538   -7.50163919573140
N          -0.79080490487139   -2.00706455130135   -8.37116224625550
C          -3.27177190682285   -2.92496974359069   -6.41025535842991
N          -4.36972463057238   -2.59180787639963   -6.44915269459670
C          -3.18669385396541   -4.86290838207941   -4.12408684155997
C          -3.84850462184329   -5.54424462401583   -3.08592323833186
C          -5.22072430402442   -5.41544327152384   -2.89168744190413
C          -5.72045482171625   -6.14023722601662   -1.81574259428907
S          -7.42741372634261   -6.22149110318165   -1.45656745921007
C          -8.13542393566795   -5.95523921781882   -3.12057596869116
C          -4.70169721774781   -6.84504958018197   -1.14226988740622
S          -3.15682996096101   -6.62359565877828   -1.90846505382895
C          -4.75771733971860   -7.69511789421116   -0.00768212523281
C          -5.80358723669287   -7.69285844995705    0.95031943139954
C          -5.85200102421500   -8.62205899674667    2.05530417705103
N          -6.89961932586075   -8.59039321426938    2.89461110292270
C          -7.83213353207839   -7.68564044208669    2.73631733575047
C          -7.73860620902565   -6.70741952973456    1.69722602077070
N          -6.74570848852059   -6.75224702806004    0.84019753466414
C          -8.71021001898622   -5.68369900376435    1.58027341448644
N          -9.51623728664584   -4.87222544050477    1.51954918073142
C          -8.93958496076523   -7.68067291431528    3.62391104646677
N          -9.84352512875143   -7.65715110950694    4.32585735451911
C          -4.81309729079657   -9.55160503633277    2.29059706714662
C          -3.72724346080245   -9.48842160906884    1.39250497451634
C          -3.70342782315250   -8.59689546497128    0.26488263472426
N          -2.59211456526796   -8.74951585027724   -0.45433651065424
S          -1.67031957938514   -9.87701365368918    0.20883029519368
N          -2.62598959733538  -10.24055232760350    1.44666309248500
C          -4.81775901212068  -10.51769353724092    3.33810452947311
C          -5.85563156892972  -10.94102252852019    4.14370286174418
C          -5.50079634544618  -11.98320264009054    5.00431808919487
S          -6.69814649551611  -12.75355575541359    6.01353718642036
C          -6.24491132701850  -14.51934610897427    5.92369798657201
C          -4.15229302727894  -12.34610219850203    4.91074801335256
S          -3.36637338606799  -11.41629257547321    3.65488942178559
C          -3.43429565396458  -13.18744415136022    5.77684333759263
C          -2.16475703892096  -13.67270758536257    5.61309491645915
C          -1.34785603918138  -14.05854914810266    6.78538683160079
O          -1.72694884468485  -14.25934299478472    7.91528327719451
C           0.04886099727160  -14.08932457613315    6.27838267936759
C           1.21779807988823  -14.27861687500485    6.98304085540611
C           2.42544432336148  -14.22483960237179    6.28278452077802
C           2.43155399042921  -13.98488713284856    4.89537832642028
C           1.24051437864921  -13.81145638691800    4.18689350712393
C           0.04850541838456  -13.86433583943122    4.88641041119932
C          -1.33690668647080  -13.75901275319632    4.43472351213336
C          -1.78598646814198  -13.97876863629031    3.15662089080385
C          -3.14751644796340  -14.24219685977425    2.90037674573588
N          -4.24315669799305  -14.53268271053675    2.71771724356694
C          -0.95966722909190  -14.02145195600330    2.01969299356355
N          -0.32648894880760  -14.01057564103326    1.06214896032134
C           3.66709386616317  -13.91257327765459    4.20552638524465
N           4.65842172384961  -13.84591185602174    3.63676563269085
C           3.64863140391036  -14.40737870558835    6.97171575730208
N           4.62816680809510  -14.55493193792502    7.54618401050049
H           0.99737084262372   -3.38334489081765   -7.29615513818516
H           1.85499873596515   -6.68357436787444   -3.65291574969033
H          -3.84625680331339   -4.22738027295872   -4.70245259118034
H          -5.82258863487515   -4.78790397951250   -3.52360535650228
H          -9.16475893560583   -6.29143404507583   -3.04686015441519
H          -7.60219529092030   -6.54442477133276   -3.85871538780959
H          -8.12061167834541   -4.89962505745258   -3.37142676625526
H          -6.84670643794799  -10.53168191774404    4.09024729234581
H          -7.18309469860708  -15.06289624687659    5.86135358264638
H          -5.70619030441756  -14.82424149862985    6.81469828617344
H          -5.65472041382826  -14.68940026556055    5.02900732564824
H          -3.87964630918748  -13.36758389582207    6.74977516836672
H           1.20166963675262  -14.46090306373550    8.04684191640455
H           1.27409252638301  -13.62952519242487    3.12386941476798
