89
 SCF done       -191.497436943178          0.000498591964
C          -5.75678803107122   -3.07290882539152   -6.05045732243231
C          -5.97834883601451   -2.50205948280282   -7.29206413364450
C          -6.26851175292449   -3.34428422332503   -8.36832857509841
C          -6.49700098478810   -2.77792621633992   -9.64712040226025
N          -6.67797011597929   -2.30939841296798  -10.67589357723633
C          -6.33942000477446   -4.74161649212477   -8.20839227491735
C          -6.63549067121011   -5.56093672897386   -9.32472570914223
N          -6.87318483450880   -6.23079734735456  -10.22239928249446
C          -6.11590735897550   -5.31494777925499   -6.95530294203706
C          -5.82766347469692   -4.47152230325289   -5.90373819323698
C          -5.54524725435225   -4.82852341859085   -4.49860142873526
O          -5.46710550676649   -5.95739351172004   -4.05198011333364
C          -5.36772879406802   -3.55957061580410   -3.78631756440155
C          -5.43965308841781   -2.47909399677841   -4.74856247836024
C          -5.21703110477273   -1.14585712288692   -4.52419232564365
C          -5.28923479431320   -0.15266546520817   -5.52517389417040
N          -5.33218487969012    0.69956493045605   -6.29225286481343
C          -4.86086828188088   -0.56831795631301   -3.28591736080037
N          -4.55924585987486   -0.01932894764643   -2.32375090472298
C          -5.23460987667668   -3.42153167451475   -2.42437370338747
C          -5.16357380691249   -4.40566512151715   -1.43530536732448
C          -5.13298485848596   -4.09632805715648   -0.06227516792537
C          -5.04126218429963   -5.21953148286222    0.76669677422070
O          -5.09649921033477   -5.23199474092916    2.11470248287716
C          -5.47714059641202   -4.02661567312277    2.74424567927286
C          -4.68262254982192   -2.83225886505159    2.24269792083615
S          -5.17152493280095   -2.45183394853748    0.52922392663894
C          -4.96087707232863   -6.40888124047432    0.02950635109680
S          -5.10973007313145   -6.13175186456710   -1.67743996959268
C          -4.78343423396194   -7.73754171344380    0.50377611097610
C          -5.14016869345392   -8.83092402408115   -0.32187042359959
C          -4.94738049879328  -10.19821170357006    0.07654174472856
N          -5.23311360281429  -11.17209059032136   -0.79403397708719
C          -5.69055536582636  -10.89106456176840   -1.98787314216389
C          -5.94211217144385   -9.52862457197970   -2.35862856116673
N          -5.66896468728385   -8.56411861101366   -1.51961409331598
C          -6.49392598901168   -9.20573559004284   -3.62490997192311
N          -6.93631275536805   -8.97986532571346   -4.65622604503656
C          -5.95472422717514  -11.94573033865435   -2.89734406142229
N          -6.17973400677382  -12.77103207117478   -3.65829649257006
C          -4.44407662658006  -10.56309862561121    1.35105367707334
C          -3.99440693482686   -9.47296269675038    2.13306453300737
C          -4.15650516256392   -8.09161198192387    1.71700014864399
N          -3.54854067955697   -7.25375623081336    2.55634701642136
S          -2.86562601189409   -8.08558150233109    3.73600633779621
N          -3.27823091237045   -9.55533117930606    3.25262339316145
C          -4.32799614517943  -11.94357368977273    1.68854985817436
C          -4.20471026635975  -12.57512714319902    2.93097152271663
C          -4.10417787795970  -13.97854744946634    2.83226906893451
O          -3.94419510879109  -14.85401311936696    3.84870232018011
C          -4.31703499580460  -14.41704426117816    5.14349034944591
C          -3.64465209001991  -13.11444659759367    5.51909389285845
S          -4.28007497489145  -11.75969320749630    4.47479525267558
C          -4.10412632052743  -14.43493197953680    1.51018269287537
S          -4.32563904434399  -13.10954126753068    0.40157190115612
C          -3.92220638667464  -15.71611815809610    0.96068137610248
C          -3.95450371399645  -16.96966116679029    1.50842318886414
C          -3.25181723192791  -18.06860086055081    0.79154412424433
O          -2.80077458181757  -18.04227645762500   -0.32764984060530
C          -3.17752792837963  -19.18146517800202    1.76959948620456
C          -2.52959805657198  -20.39157257334781    1.64916332396472
C          -2.57209766292216  -21.27146831612490    2.73314659454868
C          -3.26340552057890  -20.91524040471328    3.90648700914514
C          -3.92951352176347  -19.69171479669480    4.01148694556194
C          -3.88355213514460  -18.82420392729872    2.93494846126797
C          -4.48436464876215  -17.50418589097558    2.73238165760361
C          -5.52979203855234  -16.99069012892771    3.45720882448022
C          -6.25539676483383  -15.85444454715440    3.05169385518619
N          -6.85822703250889  -14.92462549013356    2.75171179933636
C          -6.01436096759192  -17.54998947984357    4.65550948562929
N          -6.41641867866090  -17.93620327973257    5.65900757116736
C          -3.27875530739047  -21.81019946759317    5.00487382374882
N          -3.29195633465864  -22.52229615008416    5.90111430735334
C          -1.91155436218168  -22.52117668606229    2.65523979115369
N          -1.36820228087640  -23.52608142742228    2.57569812210224
H          -5.93775110755021   -1.43718006279709   -7.45643295148731
H          -6.16989220307066   -6.38328735206530   -6.80860625555051
H          -5.19364312695139   -2.41077962278209   -2.03277244934665
H          -5.28759946508709   -4.19569804914469    3.80723737925847
H          -6.55063918812663   -3.84647211427754    2.59435852451638
H          -3.61355328962389   -3.04462480855336    2.25960839686250
H          -4.89657349667109   -1.94155628030316    2.82853174691188
H          -4.00836769879535  -15.22456372487248    5.81299778625460
H          -5.40797784176464  -14.30238937279337    5.19537943014439
H          -2.56484824973748  -13.17640737102317    5.38151343816542
H          -3.87395349196718  -12.83701005114103    6.54505782819490
H          -3.62600954834586  -15.70661667419856   -0.08585653648224
H          -2.00187732493938  -20.65078241689143    0.74391776488170
H          -4.44961863799773  -19.45008109323654    4.92526535825908
