81
 SCF done       -172.274402484964          0.000813601946
C           0.00359568368680   -1.05970227752583   -3.27447853064601
C           1.05002011440775   -0.16323740153485   -3.41381903955054
C           1.86577123392319   -0.26452035809081   -4.54263370465000
C           2.94830523540920    0.63618452479897   -4.70033930783420
N           3.82433217190934    1.36246679215680   -4.82458538345675
C           1.63629989194722   -1.24673969631933   -5.52525530928112
C           2.48097548129980   -1.32577529565642   -6.65838393915582
N           3.15387842362291   -1.40933607321311   -7.58121333835154
C           0.58103998554043   -2.14843662490239   -5.37922359150045
C          -0.21202704258582   -2.04244199812985   -4.25685882886641
C          -1.36359533160887   -2.89278290276652   -3.87236784983300
O          -1.81739717134955   -3.79460882118740   -4.54309058532682
C          -1.77934889319252   -2.41142376132585   -2.53858246803416
C          -1.00710790878459   -1.22032986573755   -2.22934460534486
C          -1.21865923148137   -0.34062604332218   -1.20119381540176
C          -0.43829422830590    0.81510750223344   -0.97956186302732
N           0.16216140015041    1.76523602204629   -0.74892964086961
C          -2.26170453018101   -0.42158578660004   -0.25212438784977
N          -3.09152354022420   -0.39948442600477    0.54067731533505
C          -2.61490810832751   -3.02319611476158   -1.63745317440388
C          -3.43489065997179   -4.15701453978958   -1.75822740777314
C          -3.84437850906761   -4.90589049249897   -2.85630137181787
C          -4.65916957278670   -5.96403179345534   -2.49092751073828
C          -4.89725490663709   -6.05521597892485   -1.10344911386056
S          -4.11778183580006   -4.78235177802159   -0.24884200006332
C          -5.67181890839016   -7.14714042750130   -0.73911182693507
C          -6.04313486570580   -7.90260448474723   -1.84263911290406
S          -5.45203127971453   -7.24624128943580   -3.35247968851946
C          -6.77741441259202   -9.11889103378925   -1.82522331032769
C          -7.10066544619456   -9.78509471587306   -3.03287230964286
C          -7.76108372507189  -11.05690014446816   -3.08333158946401
N          -8.02486105915856  -11.60737977222399   -4.28602764313935
C          -7.66851132685678  -10.97514510435179   -5.36826482780615
C          -7.00809950293387   -9.73049165513632   -5.31816907529128
N          -6.74370565879252   -9.16943189075833   -4.17403939207614
C          -8.11875303615615  -11.74310901141305   -1.89265983263910
C          -7.83726746669479  -11.05732016088016   -0.69212262354607
C          -7.18937465986773   -9.76884331215055   -0.64439756376811
N          -7.03604270983871   -9.34707526122549    0.61422649680165
S          -7.63812494825768  -10.43856203981847    1.61953765628622
N          -8.12009809693914  -11.50937407296281    0.53141218426489
C          -8.68783036735656  -13.04788011425033   -1.85469633465069
C          -9.04819372185337  -13.85426155712643   -2.92360044753647
C          -9.52518350619004  -15.08777698370168   -2.50250070752297
C          -9.53819091306684  -15.24742301524567   -1.10264337185353
S          -8.95852480055606  -13.82848098808544   -0.30458213891200
C         -10.01394740212254  -16.47884044938980   -0.68225123574722
C         -10.37194456690893  -17.29439104676806   -1.75002074199997
S         -10.08918999631519  -16.50521225577030   -3.29802022548643
C         -10.82388629535046  -18.62636033399464   -1.75665213155214
C         -11.31497609546191  -19.39511801948248   -0.73809626408862
C         -11.28545800746409  -20.87303779339832   -0.88898442925765
O         -11.06514661267917  -21.50038038044091   -1.89728482548008
C         -11.52850439944901  -21.40574262659269    0.47306365743011
C         -11.48646294768799  -22.71355455089992    0.90610892042832
C         -11.71221458242965  -22.96562618674304    2.26090846115209
C         -11.96870576398581  -21.90104218976977    3.14574029695905
C         -12.02213711197633  -20.58064880715242    2.69345867822799
C         -11.80564792613823  -20.33764572400659    1.34865896535770
C         -11.82381089018153  -19.09144656231870    0.57797671043822
C         -12.45868273196281  -17.94116898455697    0.96969466571528
C         -12.70348671965313  -16.85624010027600    0.10350255821574
N         -12.95054610777876  -15.96760836729491   -0.57870507563118
C         -13.01410687620863  -17.74529256065094    2.25107179182570
N         -13.46060922979938  -17.53301002007605    3.28646561046076
C         -12.17122581809850  -22.17251483950200    4.52172475789308
N         -12.33052935603395  -22.38137078693277    5.63592987992877
C         -11.67476905354919  -24.29458229378081    2.74778568421214
N         -11.63914613785382  -25.37591743397206    3.12272932356957
H           1.26050551156803    0.59938157865185   -2.68124190652889
H           0.39236817295770   -2.91020100248614   -6.12042683132031
H          -2.62441721020426   -2.59878072222821   -0.63973923979728
H          -3.54369901347366   -4.68299979462350   -3.86254619046670
H          -5.95636662645351   -7.40661461459880    0.26308283854179
H          -7.90786728627293  -11.45201514570185   -6.30867578305229
H          -6.70569408013000   -9.19959453737650   -6.20906870839512
H          -8.95291737788456  -13.53495681205459   -3.94341234025596
H         -10.04773087797319  -16.79166241366672    0.34516110986537
H         -10.69442829479035  -19.16026396352072   -2.69386125262866
H         -11.28290484068710  -23.51952344506419    0.21758830026071
H         -12.21737118704047  -19.78841259004512    3.39903988268257
