89
 SCF done       -187.651793303763          0.000956440480
C          -2.47036865594601   -2.55378390154385    3.50483702887758
C          -2.16345817974392   -1.85073256324967    4.65702717269333
C          -2.87554726458259   -2.14395876118641    5.82299861157323
C          -2.57547055071720   -1.43360648878826    7.01197194913129
N          -2.32122981707205   -0.85555293230789    7.96681356390547
C          -3.88591473958345   -3.12486173948736    5.83968975552505
C          -4.58730937695959   -3.38774010868063    7.04146550526941
N          -5.15629847313558   -3.60773368046247    8.01034471554612
C          -4.19212118397401   -3.83501095123678    4.67727653430788
C          -3.47680585892937   -3.53818897201789    3.53692917134910
C          -3.60278859732098   -4.14593961089857    2.19813638467219
O          -4.30644618034577   -5.09591434464862    1.90912541746051
C          -2.68771665680820   -3.40242156913894    1.32600883698735
C          -1.93309856247873   -2.47438077296360    2.14340721999647
C          -0.88730938628491   -1.67969438964089    1.75268165413920
C          -0.18533229495023   -0.81377428659916    2.61912432557111
N           0.42602916035928   -0.09697160779713    3.27408102136347
C          -0.34446550539777   -1.62411712695873    0.45077026959788
N           0.15295953259294   -1.52574370706652   -0.57928779244912
C          -2.62615033991283   -3.51542789910796   -0.04387972617561
C          -3.38085227394375   -4.32900218930974   -0.89389638117640
C          -3.33805316023327   -4.24544366613443   -2.28884531121861
S          -2.43011392170124   -3.22924824109086   -3.34328740782620
C          -3.22372133321863   -3.94752120989463   -4.73120794540177
C          -2.86040847817934   -3.48146555347409   -6.09171072457812
C          -4.12558606293344   -4.90184438140773   -4.38818234838632
C          -4.21150930457190   -5.10684696538257   -2.98646326832405
C          -4.97245674180563   -5.89306103479418   -2.10274129494106
S          -4.57847827422164   -5.51926997875494   -0.44106058423366
C          -5.93487062467225   -6.90770032612416   -2.33033763971326
C          -6.75126901187833   -7.33907627094011   -1.24704396401445
C          -7.63992444877833   -8.46365582584510   -1.33188009640517
N          -8.28979734557760   -8.86701837220406   -0.23718139510806
C          -8.14679966456025   -8.23042626218022    0.90016522126112
C          -7.34886731570969   -7.04422207401461    0.95725741999403
N          -6.69580459792274   -6.64951037725054   -0.10791721488494
C          -7.25599333360770   -6.27484589006460    2.14435789991005
N          -7.19094824666379   -5.68067886649930    3.12094895713259
C          -8.81430643656544   -8.71013438866947    2.05450449184219
N          -9.33721082507690   -9.07113789550273    3.00695627774406
C          -7.82438319221338   -9.19985138369461   -2.52777035005141
C          -7.07138054532943   -8.73245808880967   -3.63000759171282
C          -6.14684284580030   -7.61797069436984   -3.53813815952145
N          -5.53354608367131   -7.40788732584458   -4.70028700003701
S          -6.05274883430318   -8.46110513451836   -5.79230877487101
N          -7.08081866575071   -9.25691608649713   -4.85070520608172
C          -8.66712362716764  -10.33720362722416   -2.54526978268376
C          -8.94060920960993  -11.24946743249942   -3.56345129492785
S          -8.39049393557957  -11.43884124917591   -5.18963972279358
C          -9.31099559132021  -12.91915623342534   -5.35712200202078
C          -9.26922245850776  -13.66239567816233   -6.63909151034481
C         -10.01802913641612  -13.23125010715736   -4.24067655488913
C          -9.85088005790958  -12.27599526975049   -3.20749336754694
C         -10.32793555435810  -12.13749956944526   -1.89958091509289
S          -9.54803090367374  -10.78289859901256   -1.10770720325765
C         -11.25442131069626  -12.89154349123827   -1.17023115620643
C         -12.25021812642426  -13.72826031854385   -1.60876064401482
C         -12.79948133283232  -14.74085200205541   -0.67303096379177
O         -12.59931824282987  -14.82637746789524    0.51495119695712
C         -13.60100426447505  -15.65621204165033   -1.52215195631426
C         -14.23278653070680  -16.82735197745142   -1.16548823673850
C         -14.90402897799313  -17.54242583901824   -2.16011839863614
C         -14.92352842692684  -17.06355178157761   -3.48339889227062
C         -14.29000544806877  -15.86769250659659   -3.83083897728540
C         -13.62751234653767  -15.16298189296591   -2.84153224205437
C         -12.89710689639113  -13.89260830462621   -2.88293626105874
C         -13.00842878677642  -12.95332594067882   -3.87990799421322
C         -12.53460470048689  -11.63137613367261   -3.77192865039384
N         -12.21260728637841  -10.53046304340427   -3.72304640862597
C         -13.67044175046367  -13.17611439370812   -5.10336692581322
N         -14.16012586489554  -13.32345451295497   -6.13103814475550
C         -15.59092051163067  -17.81121000000982   -4.48498467638773
N         -16.12376085994295  -18.40600968751647   -5.30538893635195
C         -15.55839291974470  -18.75594299474132   -1.83897316160810
N         -16.07871611446730  -19.73753938676433   -1.56142890056565
H          -1.40254332274782   -1.08726667864767    4.68565138094310
H          -4.96903302988581   -4.58492670746186    4.66315441313081
H          -1.93345055092403   -2.86649756987918   -0.56782442227829
H          -3.02075403923491   -2.40780473455603   -6.18433807618377
H          -3.46119551125564   -3.99579916213832   -6.83719439317802
H          -1.80676143408414   -3.67486589716042   -6.29197587578807
H          -4.70488559372297   -5.45268649227580   -5.10285511703569
H          -8.24392658203759  -13.76226947849349   -6.99055154017329
H          -9.83060772092225  -13.12384580251156   -7.40321292635617
H          -9.70714044560803  -14.65070955002348   -6.52214219946992
H         -10.60385067941364  -14.12730260184529   -4.14689584241499
H         -11.15190370049711  -12.84464676216723   -0.08957327469444
H         -14.20691239405990  -17.18323639589076   -0.14681308154197
H         -14.32402932207564  -15.53172678689734   -4.85533558963059
