93
 SCF done       -190.698686105522          0.000871345277
C         -16.65554460610706   -6.69970745779695    2.78994257365019
C         -17.88168582890544   -6.37153478227451    3.34636552622221
C         -19.03713398457509   -6.61931597814870    2.60336099954819
C         -20.30033469229461   -6.28320211425614    3.15095023039685
N         -21.31719644510012   -6.00768781707146    3.59888235399580
C         -18.97311641050529   -7.19319643700981    1.31862359231385
C         -20.16369204773824   -7.43386821090794    0.59148738859647
N         -21.11541432031989   -7.63599781727812   -0.01231756402221
C         -17.73646460541674   -7.51869310104881    0.76090066456194
C         -16.60291278783847   -7.26261635405987    1.50288484476119
C         -15.19393336584089   -7.50361191349306    1.11459309603352
O         -14.84121369622408   -8.02169388111111    0.07894918874124
C         -14.37769575622282   -6.98164450672021    2.23597361286280
C         -15.28983875675811   -6.56974703040289    3.29722346356475
C         -14.96641589676256   -6.18121531693173    4.56918716580713
C         -15.91882390315609   -5.81234009573042    5.54608346636815
N         -16.63840199083823   -5.49716053333885    6.38209701126787
C         -13.67095834368157   -6.11505529633915    5.13194026707376
N         -12.67550510004526   -6.03669947920092    5.69870153121938
C         -13.02713976886153   -6.78546099193739    2.31298683232763
C         -11.93790508445167   -7.06567349350948    1.44094309089677
C         -11.93292262987563   -7.77709837599273    0.23592155318891
C         -10.78818451317600   -7.96574034595443   -0.52811457309096
C          -9.53803518173902   -7.46316170787518   -0.15494167269103
C          -9.49868678950702   -6.76426579247816    1.07275423405002
C         -10.67091462164115   -6.57019571004585    1.85148432084823
N         -10.31004049251982   -5.87673778323008    2.93904528841915
N          -9.02827202067694   -5.69205408516509    2.80095152265878
N          -8.47994288130633   -6.18481072645524    1.72270157754622
C          -8.27007973355987   -4.98532894050380    3.78532849210695
C          -8.36090003246614   -7.60264173895054   -0.93862756223257
C          -8.19541761577642   -8.24700286122549   -2.17210864050049
C          -6.85810541021532   -8.12315340065112   -2.69517220071700
N          -6.50653010066531   -8.74338780893187   -3.82206380057462
C          -7.44637692786482   -9.37389723179995   -4.48622531655488
C          -7.07095844711262   -9.98697524553400   -5.78339886787095
O          -5.99213248143811   -9.80163766182136   -6.31034836365587
C          -8.12695415364337  -10.78719500982181   -6.42694869982375
C          -9.37393997135831  -10.88346219288232   -5.95497453507899
C          -9.83397209487240  -10.21968505684048   -4.72109319808912
O         -10.97398570476768  -10.30957064696950   -4.32160141307352
C          -8.78656114933738   -9.45707783929291   -3.99262721521819
N          -9.13106629759665   -8.92547170900703   -2.84206182839786
C          -6.02031796375275   -7.36336834546281   -1.86694898152232
S          -6.87607710239752   -6.86411518499184   -0.44955037948257
C          -4.66525460620354   -6.98587949078836   -2.10305946921542
C          -3.79503517228220   -6.62901178695275   -1.07239771174070
C          -2.46739889542132   -6.30293581442477   -1.29807174447052
C          -1.89671062617148   -6.25305111349414   -2.57294476214535
C          -2.75332318589257   -6.61915736494857   -3.63699676549333
C          -4.11909116645650   -6.96475049301020   -3.40458456975950
N          -4.67208795352365   -7.21365453497307   -4.59780406900040
N          -3.70544161517888   -7.07283206760684   -5.44537243385086
N          -2.54172181382734   -6.72350453006460   -4.95826992615120
C          -3.90534994790529   -7.29807912224980   -6.84189324746223
C          -0.52609929032687   -5.88607935504067   -2.72955566683831
C           0.12198470673655   -5.39778383883282   -3.82090395684904
C           1.60714067174646   -5.47015914943839   -3.88131895098352
O           2.36762660965685   -5.69961966478194   -2.97234865120162
C           1.94250518910082   -5.25378392157844   -5.31005393360454
C           3.17242459973900   -5.33405164127255   -5.92741011226369
C           3.23331664636677   -5.11661836100901   -7.30547305642289
C           2.06006477061114   -4.82833495679202   -8.02922133811211
C           0.82119736601296   -4.73702011579367   -7.39216472684661
C           0.76692951082866   -4.94812957874965   -6.02516314528235
C          -0.35119711787966   -4.88547451772505   -5.08643760608399
C          -1.54321973020024   -4.25274496910571   -5.31363095688190
C          -2.46225972845927   -3.93782715128119   -4.29071865910490
N          -3.21755488604552   -3.62047266983508   -3.48740555966991
C          -1.97017298242372   -3.79772604120554   -6.57696851098107
N          -2.38802956518128   -3.45921469835317   -7.59085626830064
C           2.13764662399755   -4.62956633876436   -9.43017820681681
N           2.18896402180932   -4.46996197367091  -10.56255720731582
C           4.47671588432635   -5.18940488783230   -7.97818751598571
N           5.49127154325656   -5.25342384410294   -8.50525751762459
H         -17.97442781209422   -5.92812072332097    4.32462824733362
H         -17.66546768172722   -7.95569405951676   -0.22363235850122
H         -12.68159479995044   -6.28043812588057    3.20848929919793
H         -12.85716382479712   -8.19431198885124   -0.12815403928962
H         -10.86037862899662   -8.51616217593914   -1.45312676919565
H          -8.92391027002915   -4.78999254186881    4.63226223653756
H          -7.90281552563853   -4.04549845245534    3.37081233482560
H          -7.41698073522747   -5.58899647985177    4.09390264703024
H          -7.83287128374975  -11.28270004215558   -7.34255766153778
H         -10.12830900720748  -11.46175508261746   -6.47118852253583
H          -4.17024402605257   -6.62928116483348   -0.05935667918475
H          -1.84874631779842   -6.03953457796504   -0.45286973387517
H          -4.61052980303941   -8.12295896727928   -6.95158046232991
H          -2.94821219510643   -7.54038457286115   -7.29826981519298
H          -4.31561602358734   -6.40301224955927   -7.31411703466778
H           0.11094719188301   -6.07244241119581   -1.86965352145806
H           4.06376325108039   -5.55954323483699   -5.36180311470084
H          -0.05927065876758   -4.51623114521882   -7.97496788119397
