85
 SCF done       -178.192436652047          0.000496260381
C          -5.77460476449614    0.62343297805107    1.95705635345259
C          -4.58712635831898    0.93838354717367    2.59237744888533
C          -4.60682860622457    1.92133328835141    3.58444638223384
C          -3.40616603132348    2.24779675598501    4.26189470288673
N          -2.42995204582871    2.49876971534409    4.80492181268757
C          -5.79858445956666    2.58887130604855    3.92520967382948
C          -5.78372650205382    3.59089847042720    4.92487888134797
N          -5.79066806932352    4.40319184819594    5.73212328128990
C          -6.99559239701557    2.26176562962854    3.28396433385925
C          -6.96803836331691    1.28011975289806    2.31721888576271
C          -8.09473970577828    0.72778519453655    1.52157008305791
O          -9.25085525955726    1.07946753004004    1.54499955870722
C          -7.50289322245063   -0.38525310265131    0.74503956821461
C          -6.06852465287040   -0.30887611475799    0.86745604640661
C          -5.14863086741012   -0.76911950389916   -0.04078669134349
C          -3.75555299843104   -0.62616295845510    0.10753984358067
N          -2.61356143083003   -0.56207472815152    0.20438616986789
C          -5.51449914437794   -1.34952669981145   -1.27340301739580
N          -5.78085942278946   -1.76505375765344   -2.30969818826158
C          -8.31670092694933   -1.31537850397692    0.15291821456111
C          -8.02611109039195   -2.63139090796472   -0.22404979502386
C          -8.86682291142138   -3.44492871706723   -1.01569823724059
O          -9.99675218138034   -2.93288368054598   -1.50267932407774
C         -10.78394035955860   -3.75868413732627   -2.34256012546263
C          -8.36154640060095   -4.73036840944297   -1.21349164314827
C          -7.15587536442339   -4.94307763658647   -0.56389124892140
S          -6.63592810911037   -3.53846957273162    0.31218955502505
C          -6.39292641708319   -6.12318357916133   -0.60882163317014
C          -6.70964776637249   -7.28431894697501   -1.32991367031734
C          -5.69775180713796   -8.29044910319493   -1.20692306036831
N          -5.75874853772363   -9.44245666284089   -1.86204519313529
C          -6.81047175135200   -9.64024181095056   -2.63144673384487
C          -6.86173855457292  -10.89980347284124   -3.40730037361230
O          -5.98484678370415  -11.74037142562957   -3.34423963456478
C          -8.04858702457654  -11.05657118082024   -4.26095193977514
C          -9.03427014331354  -10.15410746468724   -4.33050961795371
C          -9.04820346084578   -8.89562227515090   -3.56629772112683
O          -9.96371317004207   -8.10229712969176   -3.62547661878307
C          -7.84889661965213   -8.66152042139627   -2.71917394125762
N          -7.78955314881687   -7.51048048879470   -2.08422084362756
C          -4.61652698205112   -7.90179440903061   -0.39862859941222
S          -4.85255191701889   -6.30150398944691    0.19597389560184
C          -3.47680017389684   -8.69598797693457   -0.25170687041684
C          -2.21829878499493   -8.33739546755494    0.25734787927930
O          -2.08577313120826   -7.12968441756873    0.82208650802440
C          -0.78673395248104   -6.72013582859254    1.20447557100286
C          -1.25990787258662   -9.33445680245003    0.05324269738480
C          -1.76259645454889  -10.43482084002623   -0.62141944161267
S          -3.46959744462543  -10.28291371943169   -0.93361176027160
C          -1.06779512710177  -11.59464754014260   -1.05191365320115
C          -1.44756744145074  -12.40744557340758   -2.07431155271490
C          -0.96086312881790  -13.81345681673372   -2.15260541583780
O          -0.01649642975566  -14.29336048374918   -1.57548927938265
C          -1.93948932803353  -14.49946817241508   -3.03160948192630
C          -2.05666837234511  -15.84476688215015   -3.31447638903855
C          -3.11233603872602  -16.25593289027322   -4.13091289898781
C          -4.03386023163204  -15.31491227379949   -4.63268979599313
C          -3.89808031908307  -13.95407446971528   -4.35671784517567
C          -2.83930591442121  -13.55327598980197   -3.56243395216124
C          -2.43190923583463  -12.22185217818878   -3.12890287606717
C          -2.70713383120800  -11.06288349265322   -3.79803982053392
C          -2.08699727026177   -9.83212716600948   -3.48949869976014
N          -1.56993222806807   -8.82803545007453   -3.28632972634353
C          -3.59535894146885  -10.96580153682470   -4.88905482724324
N          -4.31207559899480  -10.81538762280968   -5.77192958459055
C          -5.12416134164528  -15.75355264612475   -5.42411161912478
N          -6.01430324590908  -16.09168590740475   -6.05976925357754
C          -3.26724207230688  -17.62761579309980   -4.44551173730043
N          -3.37790953283686  -18.74039726130048   -4.69217598713633
H          -3.65846211806355    0.44400763784370    2.35388454367794
H          -7.91651465326666    2.76381428866176    3.53883553437511
H          -9.35483474355068   -1.02240385160238    0.02781046640763
H         -11.63945742999298   -3.15174930739708   -2.63121132882110
H         -11.12638503214607   -4.65076314813013   -1.81236840601485
H         -10.22675600779190   -4.05827823563614   -3.23313623028845
H          -8.81795246359662   -5.50396011564492   -1.80338990307487
H          -8.07970475135896  -11.96715446631724   -4.84383922645763
H          -9.89244301576117  -10.31048814650292   -4.96991446241848
H          -0.89828206952068   -5.70850199117823    1.58881386411465
H          -0.10978015048813   -6.71484928012012    0.34656993267067
H          -0.38499839259408   -7.36837396116795    1.98795423212117
H          -0.22303146682229   -9.24911398701895    0.32253032085129
H          -0.20091925637530  -11.90558413136520   -0.47879866495649
H          -1.35636403670699  -16.56122426823606   -2.91254736382974
H          -4.62717523928800  -13.25032705648239   -4.72470033435684
