77
 SCF done       -162.319417625205          0.000658599868
C          -1.67592430707920   -3.44303899905356    5.17606965848114
C          -1.19875536533044   -2.60703659743912    6.17373284598338
C          -1.65379504017252   -2.80133706787325    7.47843090905148
C          -1.17979837174225   -1.95681506595869    8.51364561200783
N          -0.79326085922530   -1.27154260723675    9.34490521166149
C          -2.57607628766639   -3.82039957919955    7.78779384738917
C          -3.01164420567465   -3.99827567428489    9.12321676085272
N          -3.37437096698064   -4.15970108010455   10.19713961036655
C          -3.06070760259632   -4.65416003224920    6.77950951021276
C          -2.60556130741820   -4.45184386840587    5.49328017238069
C          -2.97274185081064   -5.20206797769172    4.27104026750982
O          -3.73913311249138   -6.13395019656459    4.20844506335804
C          -2.23706100648817   -4.52863632097146    3.16301567913850
C          -1.38555127368098   -3.49918644882588    3.74610078421311
C          -0.42663746514161   -2.77322593867942    3.09704014807287
C           0.39260713920018   -1.80664995496463    3.72199789071559
N           1.08017275129994   -1.01057550528054    4.17915050341494
C          -0.09010090640510   -2.91722141055086    1.73181037014548
N           0.25945151464080   -2.99643555858917    0.64220670947074
C          -2.46350188562880   -4.72376027106543    1.84208333081923
C          -3.29620912904001   -5.75279231882235    1.26176028201986
N          -4.09392169510915   -5.36092266532546    0.25906451223770
N          -4.84381104638673   -6.18395031302860   -0.35814053472722
C          -4.89594925134241   -7.47651545638110   -0.02886673435856
C          -4.11704363327866   -7.97409862066693    1.02615026560196
C          -3.27717220268210   -7.09567345719732    1.67041375714909
C          -5.77484833200801   -8.31695688534808   -0.82940214606265
C          -6.56207962338728   -9.33881604273346   -0.26872665021871
C          -7.46376703455398  -10.11964557945534   -1.07314812710524
N          -8.20744738710374  -11.09243750132777   -0.49592898278771
C          -8.09027711364264  -11.28782419662314    0.78387897980025
C          -7.21972757993372  -10.50560092942392    1.57867153611230
N          -6.48419373875216   -9.56502577551581    1.06456998628182
C          -7.56865736964191   -9.92045857861915   -2.46299224426477
C          -6.77628144748913   -8.91171807310102   -3.02423978164626
C          -5.89154453323376   -8.10679394086980   -2.20838639518474
N          -5.22205994180361   -7.21208472432549   -2.94347370502939
S          -5.68542843169025   -7.34593218075782   -4.46525606251470
N          -6.73756808315347   -8.53759544908250   -4.30805455285731
C          -8.40459542982806  -10.76560488882939   -3.29808199015425
N          -7.91665240818444  -11.09127118621127   -4.49537059655100
N          -8.53822185117826  -11.87004944758675   -5.28926768933069
C          -9.69039137245010  -12.45423882875009   -4.93560487218869
C         -10.30611383647684  -12.13032828453237   -3.71585783368156
C          -9.66262072966701  -11.24099254769240   -2.88980363693957
C         -10.28066633888972  -13.36760881621678   -5.88278669178974
C          -9.60455521288123  -14.17301270379376   -6.72961217899776
C         -10.29121060473576  -14.77940398204945   -7.90680649739535
O         -11.47922352562352  -14.88290847715958   -8.08372607209783
C          -9.19417046736947  -15.16623272915001   -8.82347180818729
C          -9.28318770556724  -15.64917887851364  -10.11271983188216
C          -8.09780522867393  -15.91523444312547  -10.79942142519654
C          -6.85292071582954  -15.68240296308794  -10.18180429571741
C          -6.77301347621994  -15.20119887250617   -8.87439304038831
C          -7.95181159749965  -14.95022535523984   -8.19212734613944
C          -8.18714891570679  -14.48725970018843   -6.82621585662413
C          -7.29845588975659  -14.58042935118693   -5.79513771933903
C          -7.64401591785631  -14.36637527759465   -4.44234979906935
N          -7.89599386638330  -14.26767451150326   -3.32774398230139
C          -5.95781554729814  -14.99658428372492   -5.94653901278583
N          -4.86176536499780  -15.32496796423216   -6.02486192110709
C          -5.66048998616296  -15.94124763442973  -10.90331171528125
N          -4.69422767542918  -16.14424946804337  -11.48237473041075
C          -8.14543619988962  -16.41583196479154  -12.12325698142889
N          -8.20395848552033  -16.82003295472105  -13.19287276700611
H          -0.49559821533054   -1.81408060230657    5.97478976153626
H          -3.77128569277876   -5.43691147298272    6.99788212757559
H          -2.05175950409329   -4.02862879293070    1.12150062994022
H          -4.15543810315265   -9.01855678351431    1.28665370975634
H          -2.59168304242988   -7.43006327492761    2.43183193576594
H          -8.69375613163330  -12.07578813737301    1.21294524368084
H          -7.13367813481300  -10.66182582535397    2.64525351126187
H         -11.24460793551614  -12.58592391689189   -3.44066015211782
H         -10.08807931599048  -10.92021666661321   -1.95393404827136
H         -11.36035365600055  -13.35167911185384   -5.97873747102841
H         -10.24312463544448  -15.81597299297962  -10.57744274053920
H          -5.80518929902950  -15.02592406379846   -8.43155050328577
