105
 SCF done       -205.653727607304          0.000487848905
C           9.91654085587425   -8.54277881721442   -1.94610093659939
C          11.15911543342923   -7.98880875268563   -2.20610880747001
C          12.29831104079134   -8.68671796393335   -1.79905538202116
C          13.57832636826915   -8.13453867871303   -2.05193477166171
N          14.61025658072758   -7.68333390817320   -2.25744367998797
C          12.20041393237907   -9.92713963050479   -1.14060208273898
C          13.37205317790326  -10.61239467286563   -0.74017998145803
N          14.30550799354498  -11.18609914578736   -0.40678953025472
C          10.94608722310647  -10.48121586897551   -0.88081462598228
C           9.83078683706670   -9.78018939587026   -1.28532595732299
C           8.40829039256263  -10.15792095328048   -1.11449343340162
O           8.02532728748400  -11.18373782047566   -0.58899490569173
C           7.62965670487893   -9.05767818675312   -1.70908682814349
C           8.55879036053389   -8.07263224666578   -2.23128426743780
C           8.27141946248521   -6.89646716682163   -2.87675546248084
C           9.24854971838651   -5.99408194739662   -3.35048558073537
N           9.98560006112280   -5.21634166664403   -3.76192391306206
C           6.98986809549311   -6.38726678911760   -3.17845844645026
N           5.99832667616597   -5.88481022878012   -3.46874001890928
C           6.26117588653419   -8.91680352033719   -1.78192833157065
C           5.20928861797766   -9.70679190664482   -1.30464843958677
C           5.15362143620641  -10.91099758996244   -0.59959512319246
C           3.87370906577932  -11.31827123968243   -0.27585127674098
C           2.90449599047415  -10.40393812871905   -0.74913728677964
S           3.58310844033669   -9.07816281008681   -1.58561620806668
C           1.57121849357006  -10.71209882580489   -0.41917640121094
C           1.38354662811496  -11.88115982162943    0.34163938120757
Si          3.03569287926242  -12.72324024707689    0.64885108065170
C           3.18643530876234  -14.36158423630300   -0.23971092253099
C           3.48205155828884  -12.79017245380545    2.46222646344217
C           0.05094238096973  -12.06025682362539    0.67675794679180
C          -0.78316593602933  -11.05718587136041    0.18770730563382
S           0.10634699928728   -9.86562080406913   -0.73200966984822
C          -2.16182307809553  -10.93116291176558    0.42781991876253
C          -2.94194165225946  -11.73119728904826    1.27714492562217
C          -4.29897745328341  -11.27175287807131    1.38049753625518
N          -5.19227437792136  -11.88973684924781    2.14996007044367
C          -4.77754351343626  -12.94482878003179    2.81876067205347
C          -5.77010210520353  -13.64318564457426    3.67062333091158
O          -6.92660636874465  -13.28612932413337    3.75763650874178
C          -5.24661251620345  -14.80802165924695    4.40522617630729
C          -3.98230069005650  -15.23552531990773    4.31775504647184
C          -2.95950604238966  -14.59182628208618    3.47760291111200
O          -1.81895962509035  -15.00292746457628    3.40831996105436
C          -3.42529246864031  -13.40289670886422    2.72230101816128
N          -2.53456903444779  -12.80084483526856    1.96280723102327
C          -4.56812632938829  -10.13903377511460    0.60118826533958
S          -3.13611250998107   -9.65742531752776   -0.25228207790277
C          -5.79829992222122   -9.46640826652466    0.54759359829932
C          -6.18038481412668   -8.41649847766786   -0.28341290811180
C          -7.46812204473868   -7.96436650237774   -0.04263152329323
C          -8.06137173190314   -8.68264701088695    1.01498838683198
S          -7.06213645824723   -9.92210577821068    1.66204696562441
C          -9.34608494499119   -8.24545501136082    1.39289384355793
C          -9.89560781380373   -7.19879492898705    0.63014624202676
Si         -8.66085564283345   -6.65933875853948   -0.67608754894242
C          -8.05863981959702   -4.91102325094355   -0.40282782599036
C          -9.23695963327588   -7.00644242693030   -2.42304132869018
C         -11.14317859300130   -6.83285801584156    1.11088981115540
C         -11.53284892168057   -7.52033666236714    2.25626785958514
S         -10.34342613238725   -8.73193921115845    2.69712889465639
C         -12.72324344032130   -7.33126804665327    2.98446290034119
C         -12.96949961695784   -7.64485374504823    4.29219360263969
C         -14.36009733598865   -7.82636058520180    4.76980798678500
O         -15.38071749279264   -7.54398620529651    4.18660788404738
C         -14.22781452884966   -8.48150289554889    6.09549659402126
C         -15.21916499296647   -8.97073570082679    6.91860959980245
C         -14.83961201609788   -9.57778147268806    8.11780115694527
C         -13.47756643276450   -9.68550580924637    8.45806687654449
C         -12.48137605078364   -9.17694119089741    7.62196593128384
C         -12.86440212195364   -8.56835907746025    6.44019412913868
C         -12.07639011152326   -7.91375798268358    5.39530405930771
C         -10.82306401122102   -7.38786303269811    5.57685988000758
C         -10.04561679645365   -7.58910893196702    6.73523308922105
N          -9.37236127127625   -7.73090146608083    7.65368771780518
C         -10.21551697003479   -6.49520014909467    4.66913141315890
N          -9.70912196923672   -5.72465043624767    3.98513944818883
C         -13.11092309342292  -10.32092535092170    9.67021679884859
N         -12.80578108287708  -10.83510698467391   10.64654900255533
C         -15.82707580505940  -10.09091975882901    8.99259201136274
N         -16.64009489603360  -10.49994478274155    9.68772998131273
H          11.27937936766874   -7.04214162412920   -2.70732339577961
H          10.84967640329509  -11.43061024738864   -0.37627411998487
H           5.91632763892983   -8.02034433300646   -2.28281923498665
H           6.04304317912049  -11.45282339601006   -0.33643865253963
H           2.91681468884167  -14.29161562982664   -1.29223021493626
H           2.54196496224927  -15.11634122579794    0.20636032334948
H           4.20330391198816  -14.74641553008857   -0.19576345178271
H           3.39786652899822  -11.81971528667606    2.94846838841364
H           4.50338479011402  -13.13469403297566    2.61083361679963
H           2.83329684767413  -13.47576313798834    3.00388626462530
H          -0.33624026755213  -12.87030079567887    1.26785802080048
H          -5.96759104644541  -15.31220396395422    5.03453625696528
H          -3.64140267774293  -16.09876557633747    4.87333354154602
H          -5.51981455798841   -8.01435929734592   -1.03150090158140
H          -7.79817061982603   -4.72796624483750    0.63827102241618
H          -8.81733633115338   -4.17939240376395   -0.67351153677503
H          -7.17675860062535   -4.68734418109802   -1.00002169461817
H          -9.58128930715126   -8.03131502597248   -2.55061170912120
H          -8.44048024471458   -6.84535207902264   -3.14661239098557
H         -10.05977682810842   -6.35536393124824   -2.71115335810695
H         -11.74823287426499   -6.05073082811897    0.68799682850614
H         -13.57195072364221   -6.94637659645443    2.42717969559179
H         -16.25984009692958   -8.88672461189916    6.64466305017815
H         -11.44612581640338   -9.27892894903585    7.90735772209548
