105
 SCF done       -208.164542499030          0.000681266745
C          -0.07710748996658   -3.76103308819755    8.74578395811528
C           0.70509891248895   -2.93398344573938    9.53339662599741
C           0.48150104485451   -1.55657440471214    9.47497737118065
C           1.27807222895327   -0.68823275778660   10.26170234529177
N           1.92786770825010    0.00939200091509   10.89557955009587
C          -0.51721605738759   -1.01349367348127    8.64436321734165
C          -0.72127044777293    0.38645369555995    8.60487854597077
N          -0.90357244337710    1.51603796591563    8.55549748554251
C          -1.30256363940243   -1.85305657886489    7.85206520085789
C          -1.06695178800708   -3.20945319746414    7.91225947966827
C          -1.74195768000853   -4.29004558429535    7.15137131833545
O          -2.66454832494467   -4.13197367900889    6.37989201467740
C          -1.02177412431310   -5.52618805027390    7.51148247676734
C          -0.08780891418395   -5.21283308336961    8.57382632089731
C           0.58301089032716   -6.11005393119232    9.36315869781025
C           1.44864615828643   -5.74037990275515   10.41404281542635
N           2.16060661663201   -5.49105207039150   11.27877297449236
C           0.44498045097837   -7.51269314097909    9.27825351767509
N           0.34889369591701   -8.65648498500152    9.28889511693047
C          -1.04290759576710   -6.73107898728719    6.84861293596506
C          -1.92736295293677   -7.20878315747445    5.87223941111088
C          -3.20697879398536   -6.80049673517041    5.49155041120934
C          -3.77612956503377   -7.58524114369787    4.50646166875072
C          -2.90435142433159   -8.62142764266360    4.10168474665988
S          -1.43075145950517   -8.63577100885214    4.96750722395752
C          -3.38137683507985   -9.45344485987551    3.07097512496714
C          -4.68415077970866   -9.16539694858161    2.61439728052450
Si         -5.37582543068461   -7.67973978572988    3.52953146985877
C          -6.85928251694031   -8.08469719375229    4.59502828675275
C          -5.63416841916543   -6.19975261935747    2.41469835444765
C          -5.05592716705490  -10.03545444510452    1.60303760283406
C          -4.06849844948804  -10.95791352109259    1.26014420790023
S          -2.63145653812886  -10.75245614744464    2.22838064228498
C          -4.12832477222269  -11.94231679293473    0.24241546760024
C          -2.98536896986182  -12.69778311392765   -0.11153337658517
C          -2.98908174628097  -13.63865853183131   -1.19969505228307
N          -1.86029584055043  -14.27921235433301   -1.51925554882771
C          -0.76277028171602  -14.06384164833725   -0.83515983898110
C          -0.76669757118334  -13.14943651579165    0.26646226384383
N          -1.86123488648887  -12.50196775931925    0.58521662382201
C           0.41140115684874  -12.92677941275544    1.02173175942329
N           1.37920515873871  -12.76043046622397    1.61075886160796
C           0.42427360368914  -14.74100620644598   -1.20964465635591
N           1.39730009171257  -15.26993168339580   -1.50067029518020
C          -4.14822142487432  -13.91660091214359   -1.96246976519471
C          -5.30977917762809  -13.20542600737926   -1.57463241248873
C          -5.29555558733895  -12.22770259948457   -0.50706831657146
N          -6.49512181697703  -11.67188521291357   -0.33809789788579
S          -7.52874275781330  -12.30122789784039   -1.39167706452034
N          -6.51872438832593  -13.30918623344680   -2.12596966304252
C          -4.10762970187395  -14.82742584379115   -3.04688656137465
C          -5.17424236301038  -15.25668528535738   -3.83545614606613
C          -4.80778698722460  -16.12585472036487   -4.84963370896258
C          -3.41628215548524  -16.35378385540330   -4.83614787217453
S          -2.59777402223977  -15.53316620805612   -3.56587733361362
C          -2.93350448245647  -17.19533146296190   -5.85460908578711
C          -3.89806009227212  -17.70331299833397   -6.74854961715270
Si         -5.60253252157250  -17.09893119720363   -6.24259393879272
C          -6.70419057458208  -18.48219563832131   -5.63331925317648
C          -6.40442217663765  -16.01384804640469   -7.53960678886159
C          -3.30476456872982  -18.47194223158513   -7.73410498766550
C          -1.92055530641646  -18.59581327346307   -7.60963072443272
S          -1.33639195111520  -17.68681388845579   -6.22830763841569
C          -1.07592701018829  -19.24005288885308   -8.52904219378142
C           0.25525836416977  -19.54001585219199   -8.43498882386818
C           1.05008660446174  -19.71391695862361   -9.67399246392017
O           0.63401095868573  -19.85665771887503  -10.80022339047118
C           2.46460050080833  -19.60776750974154   -9.23851618786285
C           3.60377294711583  -19.56746381063112  -10.01312105630382
C           4.83289708797078  -19.41472049420743   -9.36796246476075
C           4.88879116212567  -19.30223989713577   -7.96546400091837
C           3.72951311632766  -19.35897818241027   -7.18841503313079
C           2.51600279847603  -19.51704034851029   -7.83326362014322
C           1.15419901177111  -19.63722885650943   -7.30979103382108
C           0.83165124084884  -20.06886922370238   -6.04952985074484
C          -0.47186113831816  -20.47239430231552   -5.69239880893946
N          -1.51162213481332  -20.85759638021730   -5.39595107144809
C           1.77841320053773  -20.27635108622827   -5.02575588490664
N           2.51811694733067  -20.45375872403581   -4.16701191690553
C           6.14515889054307  -19.12350843279088   -7.33501349226937
N           7.15759457090035  -18.97572381184102   -6.82146863356202
C           6.02535092076643  -19.36380325525351  -10.12910944610164
N           6.97712441325791  -19.32461557611618  -10.76477876928076
H           1.48207322856389   -3.31476303312142   10.17704079239248
H          -2.06910581658418   -1.45161161844257    7.20670126362974
H          -0.23116492576966   -7.41324087253938    7.07628189465976
H          -3.69194278082311   -5.95324470617195    5.93792997965118
H          -6.68566662793613   -8.94555715437808    5.23824669129506
H          -7.73707103170684   -8.30837316065203    3.99212125813063
H          -7.12451951527312   -7.25104786968453    5.24209780080711
H          -4.76965529962345   -6.00317149749409    1.78293047758930
H          -5.81822688207621   -5.29497527150402    2.99046666968081
H          -6.48871893736992   -6.33529274203512    1.75473473681453
H          -6.00601615041808  -10.01979118870033    1.10197218268467
H          -6.17803561260484  -14.92263104762474   -3.64859552030072
H          -6.19847986147297  -19.12188530674328   -4.91207068471910
H          -7.03425141182887  -19.12207691288190   -6.44931478994711
H          -7.60053716398436  -18.09956135586538   -5.14912236535638
H          -5.74246019882384  -15.22220606257365   -7.88615448811261
H          -7.30330682822997  -15.53377415949304   -7.15832522246967
H          -6.70127326461679  -16.58773919185544   -8.41513061161909
H          -3.84431381459613  -18.95828790079808   -8.52743862058109
H          -1.51745099473174  -19.43766055756000   -9.50182402169921
H           3.54757328581346  -19.64861462313523  -11.08801764519295
H           3.80334540251868  -19.26474034663438   -6.11624746476079
