90
 SCF done       -191.785320953584          0.000557464121
C          -1.76800075845509    0.46414662183272   -2.65826773594820
C          -1.30645263471128    1.73249168593595   -2.97053163660222
C          -0.50172900201352    2.39452391380681   -2.04123669953622
C          -0.01848745370722    3.69263790484288   -2.34156917819113
N           0.36875362055059    4.74045812802026   -2.59144960413115
C          -0.15991777371992    1.79836871637463   -0.81189327211737
C           0.65636629101820    2.49801562948599    0.10948888544548
N           1.31765072137326    3.04835621211284    0.86505878104805
C          -0.62233609306645    0.51839117697631   -0.50383756103899
C          -1.41604575816620   -0.12397299480332   -1.43019552937994
C          -2.01425750942568   -1.47430763567109   -1.33017709200069
O          -1.86325423829778   -2.24219584052104   -0.40632333720562
C          -2.74447055321836   -1.67896691371133   -2.60194192539653
C          -2.62211476457927   -0.46775009766293   -3.39506378146934
C          -3.24856478151131   -0.18700221135312   -4.58032002940307
C          -3.09886378690755    1.02691613317003   -5.28686612168718
N          -3.01672575670048    1.98739582508780   -5.90875232826945
C          -4.15266443784157   -1.03593243436158   -5.25592115345425
N          -4.90979815556842   -1.65714452617831   -5.85511035289296
C          -3.32911924718511   -2.83524370255338   -3.05008951038521
C          -3.63430916895589   -4.02674120508273   -2.36792900746771
C          -3.65754927953016   -4.34867578799857   -1.01438476939734
C          -4.09939743206891   -5.64309553792961   -0.79238473773754
C          -4.41383832050306   -6.33790624716121   -1.98398490360082
S          -4.18612393929329   -5.38166416501248   -3.36791597052348
C          -4.83529944573349   -7.64549147515883   -1.64088194949164
C          -4.79708113521348   -7.77798956288975   -0.23960176592836
C          -4.34013459890206   -6.52433546873294    0.33960202575914
C          -4.18917078183272   -6.23579995569711    1.66259063749644
C          -4.44949892259924   -7.18931115250672    2.67163312501614
N          -4.65498645283531   -7.95891615065501    3.49563980641161
C          -3.78403400417319   -4.96513701780823    2.12902350488561
N          -3.47927983562481   -3.93714661831068    2.53302874514974
C          -5.21121688212786   -9.03545360064573    0.19360527910707
C          -5.55599667863767   -9.85539843093942   -0.86422188793064
S          -5.37136978042155   -9.07066620461646   -2.41610483988130
C          -6.02213340782416  -11.20749199625996   -0.74355081347267
C          -6.30031169290614  -12.04214281674424   -1.83912467500861
N          -6.71745647401657  -13.27656911955092   -1.68986799266325
C          -6.88301975298959  -13.73626663312621   -0.44050328843058
C          -6.60804625244501  -12.89922267394998    0.65547790252416
N          -6.18634066114412  -11.66898045955946    0.50645495203217
C          -7.33159442012039  -15.09058019132000   -0.28594446469557
C          -7.56015118139156  -16.00406808008628   -1.29700917542515
C          -7.96812064375863  -17.23998147001750   -0.79507396919404
C          -8.05542748905214  -17.25268349586161    0.60997579173332
S          -7.63255556754124  -15.75533529942408    1.30555660908647
C          -8.46904402271254  -18.54035274283595    1.03178609153020
C          -8.63314156898899  -19.34878353958871   -0.11224328236946
C          -8.34011709534570  -18.55425881496844   -1.29511619851173
C          -8.43564671170381  -18.96428367493296   -2.59173318704483
C          -8.84099112328437  -20.27844515771580   -2.91044547048712
N          -9.16900791439635  -21.35232335221227   -3.14205114806848
C          -8.14088197588654  -18.11459785091190   -3.67947807652434
N          -7.89510682542851  -17.42886095516805   -4.56407101328738
C          -9.04935333249948  -20.63642180189173    0.19247175679922
C          -9.21985220064223  -20.82414781860700    1.55927707777656
S          -8.81602597705511  -19.37200885980400    2.47161018322754
C          -9.59774794401749  -21.98014703784440    2.26908300131067
C         -10.16703669984093  -23.13668637750749    1.82161533197222
C         -10.06850649491474  -24.34299256574272    2.68908938519637
O          -9.72666204716112  -24.37820958237416    3.84642975423447
C         -10.42461940798112  -25.48046334275381    1.81140069473591
C         -10.37084745416198  -26.82990028436012    2.08839705935099
C         -10.71812538459477  -27.72320833040049    1.07342919107319
C         -11.10136574856960  -27.24170457569955   -0.19324398434564
C         -11.16385300732745  -25.87217341172413   -0.45931297599355
C         -10.83063411872370  -24.99088508454191    0.55437461997887
C         -10.82576110988009  -23.52591706065053    0.59396435931215
C         -11.55433057636498  -22.72575328651284   -0.24585561178694
C         -11.73725676868743  -21.34348944305762   -0.04334960131627
N         -11.92456234595920  -20.22172835746510    0.11111531331438
C         -12.28933057415692  -23.20752480055629   -1.35134830914815
N         -12.90380755241416  -23.55379398716515   -2.25531728540038
C         -11.42552020422540  -28.16659255612475   -1.21724643235250
N         -11.68431102417677  -28.90983433046110   -2.04839566406597
C         -10.67555653469754  -29.11755544890421    1.31679275741662
N         -10.63296565233279  -30.24085966035757    1.53428711198181
H          -1.54205180063323    2.22206668985871   -3.90178557221283
H          -0.37026891402865    0.04330185722813    0.43210016127136
H          -3.60602128575734   -2.85826411399861   -4.09763946313615
H          -3.35731720495173   -3.65934006758317   -0.24692209220268
H          -5.27097193682082   -9.37142855167570    1.21226439099252
H          -6.17716594895592  -11.69812598506886   -2.85793628057429
H          -6.73198313937661  -13.24217068793141    1.67458546477999
H          -7.42314372656842  -15.75206545262890   -2.33257123243703
H          -9.17520630210755  -21.42334284358975   -0.52814528875973
H          -9.33867792561786  -21.99220717581169    3.32419775567987
H         -10.06681885507566  -27.18473576668051    3.06141348757578
H         -11.45382728801279  -25.53704858342838   -1.44271176540211
