99
 SCF done       -207.922983301460          0.000459373336
C          -7.46796177331354    0.32780946822629   -3.25575505341585
C          -7.80860585908972    1.59076748450794   -3.71013743208683
C          -8.95443691200243    1.72912189466929   -4.49664668713033
C          -9.31892224826469    3.01346193931206   -4.97257784969380
N          -9.60708026884894    4.05336345506052   -5.35441033648176
C          -9.75419545489967    0.61844963598987   -4.82674452290568
C         -10.91076782631024    0.79089761731691   -5.62503200154887
N         -11.84985147068017    0.90822249620310   -6.26956855181390
C          -9.40793236782669   -0.65329141586432   -4.36779706933226
C          -8.27424120427594   -0.77626732499889   -3.59333869001745
C          -7.70071020158680   -1.99850556095559   -2.99565096031207
O          -8.15054054123195   -3.12615199743467   -3.09764252345883
C          -6.50250189745387   -1.57364928405794   -2.27058450666747
C          -6.35132645847046   -0.13863230922303   -2.42989516386211
C          -5.36285813070339    0.66116482265020   -1.92306253334233
C          -5.28860115325994    2.05687053467311   -2.12913616414086
N          -5.17278974912590    3.19050726805229   -2.26078427181972
C          -4.27725736284782    0.22823510880112   -1.12989481976883
N          -3.36808638380987   -0.04295891426389   -0.48392801204913
C          -5.66915789670821   -2.40090523086492   -1.55828251035362
C          -5.72241026651058   -3.78566950862528   -1.35220433773374
C          -4.75763802605630   -4.44989608837459   -0.58126293317931
C          -4.98404656301442   -5.80901031988089   -0.50797717003704
C          -6.13673699140794   -6.19960176041165   -1.23086917674797
S          -6.93214649713982   -4.90286318011353   -1.98851326204809
C          -6.27381378095803   -7.60626433256270   -1.09549588712365
C          -5.22789113227928   -8.09752446780843   -0.30279361883992
C          -4.38091733529866   -6.98874685571305    0.09793095561817
C          -3.26229001678303   -7.04384936649889    0.87511341775363
C          -2.78272459733151   -8.26200859786658    1.40256540821924
N          -2.39907955917627   -9.25581215745562    1.82591588694305
C          -2.51403373399605   -5.89229729120003    1.20175962910084
N          -1.90394723741069   -4.95968758032653    1.46882375483414
C          -5.28599851851554   -9.48736740725010   -0.11903150743670
C          -6.36615765851370  -10.03385747136961   -0.75506369733756
S          -7.32591023799987   -8.84709669636612   -1.61160642817364
C          -6.77801319866685  -11.47279082681340   -0.83016432997193
C          -5.98029236622523  -12.35253896516712    0.13982521171011
N          -6.40733545210693  -11.92051552145526   -2.19144706744872
N          -7.13015573242707  -12.41243451464329   -3.01331254185147
C          -8.57152974869260  -12.71946230601586   -2.86296811263171
C          -9.09567874082393  -12.19584459730273   -1.57631975520523
C          -8.23902377392506  -11.60655799297084   -0.60419414018125
N          -8.97788120203674  -11.23385815355319    0.40174281852679
O         -10.23376615141562  -11.57263927147634    0.08994204665470
N         -10.31132542983787  -12.15638043877548   -1.11072654634893
C          -9.27711652408746  -12.07981819800976   -4.06112114372484
C          -8.65543777393480  -14.21615127067188   -2.87900053595156
C          -9.13551218964406  -15.04090514903776   -3.85927475622414
C          -9.01756865202865  -16.39335305737131   -3.50261098071275
C          -8.43002850474626  -16.57501900598141   -2.24484391515369
S          -8.03398507902012  -15.09474340437216   -1.49717903923105
C          -8.34937568430723  -17.96455429422342   -1.97295141037095
C          -8.89012680139278  -18.66504289072670   -3.06880194632828
C          -9.33078178570542  -17.69769744934358   -4.06464047800615
C          -9.91066457678169  -17.95866052659076   -5.26995499631768
C         -10.15824418444115  -19.27554853762589   -5.71506919702863
N         -10.35165291977596  -20.34473875283883   -6.07914069019779
C         -10.29281282437058  -16.92533720741404   -6.15282650602608
N         -10.59682994057911  -16.08224229680322   -6.86722152654057
C          -8.83555750439221  -20.04328805418814   -2.90259236456838
C          -8.29054425705625  -20.40688471545393   -1.67747252266938
S          -7.79289619498931  -18.99548481668980   -0.74404524474603
C          -8.04370707182874  -21.73041207228946   -1.25488362065927
C          -7.71138668108750  -22.20982132721934   -0.02357545720440
C          -7.02148075640248  -23.52431579136316    0.08092896184949
O          -6.91615885049884  -24.36394482228828   -0.77892792414758
C          -6.43862142827846  -23.54084855757836    1.44442523564090
C          -5.58957636722964  -24.47058997786515    2.00617599449426
C          -5.13669220397028  -24.24610126674441    3.30771274097731
C          -5.54178629771106  -23.09544165036660    4.01134493956042
C          -6.41308486531249  -22.16679009538904    3.43849227563827
C          -6.86334597449397  -22.39776841114146    2.15076623715617
C          -7.79033765600699  -21.64431495107513    1.30575914403413
C          -8.75422556969394  -20.78812076836113    1.76674237175021
C          -9.81647305386711  -20.32582724468277    0.96101426629939
N         -10.70992998932843  -19.96925733500828    0.33570402673041
C          -8.84384521437354  -20.35341049072886    3.10551708714223
N          -8.94165016887130  -19.96196708279906    4.17920652684131
C          -5.05121523614370  -22.87187801482804    5.32219247268183
N          -4.65678391055242  -22.67843977181980    6.37917290190522
C          -4.25944700617497  -25.17393999352970    3.92018197837042
N          -3.55014739060236  -25.93432253707073    4.39923661888197
H          -7.22379705047089    2.46669649678101   -3.47978338631800
H         -10.00929227104663   -1.51591102653909   -4.61153946200058
H          -4.82371187978996   -1.93579204131608   -1.06596469898662
H          -3.94175506163121   -3.92862594893820   -0.11227516605170
H          -4.57730001895260  -10.05227733976144    0.45594640057810
H          -4.93158406520623  -12.34714949754173   -0.14256096924408
H          -6.34813004000004  -13.37584159780644    0.09697644875671
H          -6.09872217729554  -11.97708840440134    1.15238358186092
H          -9.20488430244295  -10.99645625842105   -3.98938476783761
H         -10.32572092429022  -12.36345698687886   -4.06293535559911
H          -8.79734256236154  -12.39981689012663   -4.98119752043277
H          -9.55816476851452  -14.69135376427723   -4.78195216637475
H          -9.19055789552715  -20.76833540240930   -3.61266385317069
H          -8.02865954565377  -22.46958249031115   -2.05104346391698
H          -5.28221945668771  -25.34601391138072    1.45458309330325
H          -6.70200778066061  -21.29299716647457    4.00140280446586
