97
 SCF done       -217.936942642682          0.000590349024
C          -0.96965016589917   -2.34730006777395    4.94393523713486
C          -0.44326027811864   -1.42114127137896    5.82828843939789
C          -0.55278039287135   -1.67196296748286    7.19801848224862
C          -0.01495267170837   -0.73944615380515    8.11987178092398
N           0.42333963036904    0.01704452718511    8.85873856047579
C          -1.18426209961825   -2.83385228025329    7.68111652360823
C          -1.27835027084530   -3.06027378447665    9.07556415912103
N          -1.36424318540256   -3.26242041372492   10.19933694961434
C          -1.71354815567899   -3.76563319358496    6.78670569935269
C          -1.59511732312112   -3.50830085378429    5.43775168403914
C          -2.05386717641024   -4.33513263252232    4.30275993261790
O          -2.65200210025459   -5.39273404354838    4.38184736459689
C          -1.62897510667288   -3.63102856749027    3.09093711345726
C          -1.01358935619105   -2.37646266026139    3.48008875606243
C          -0.59505834604364   -1.36316365354796    2.65986864850535
C          -0.02435892825690   -0.15637367369483    3.12091307205872
N           0.44299402849520    0.84275935515452    3.43588660521839
C          -0.70008963374132   -1.35452292289129    1.25153392521342
N          -0.76372834596054   -1.26849213020223    0.10876607064070
C          -1.72672089716554   -4.11871658083376    1.80987298896402
C          -2.31304404542810   -5.29742669788683    1.33198105268954
C          -2.25582742760495   -5.65066622458214   -0.02548362412917
C          -2.92088480953557   -6.82797307001960   -0.29282975246657
C          -3.51586300065957   -7.38629796464203    0.86955443837320
S          -3.22070755139653   -6.47890396342782    2.27822345455572
C          -4.19022166673646   -8.56988251574670    0.49639379620131
C          -4.02280545338313   -8.76616907023340   -0.89345995428021
C          -3.21760914408821   -7.68347863798843   -1.43193682153109
C          -2.82613779739722   -7.51114345396328   -2.72651213362796
C          -3.18906076672328   -8.41778299879920   -3.74576709748317
N          -3.48377012142907   -9.15099557229449   -4.57628818140654
C          -2.03007635422753   -6.41790323289225   -3.13092796721078
N          -1.37886150170467   -5.53371873340133   -3.45950118285361
C          -4.66625714031059   -9.90334656610754   -1.35692529552856
C          -5.33361079284839  -10.57559795937147   -0.33740308317332
S          -5.15018298281264   -9.78642995101516    1.21824062992491
C          -6.11374410076728  -11.75489752531812   -0.47441157627836
C          -6.80771107552964  -12.31700543838220    0.62015918105319
C          -7.64163365787227  -13.47424315424498    0.49092782910028
N          -8.28706156901802  -13.94633569575677    1.57605784300502
C          -8.14341749048850  -13.35517265931107    2.71753517428625
C          -7.31375677687837  -12.20853085312212    2.84641857707895
N          -6.68312513700719  -11.72629485799022    1.82529773841330
F          -7.16454991820350  -11.60020179174856    4.01568577349961
F          -8.79495664477496  -13.84997706169273    3.76192662563475
C          -7.82511130335059  -14.14591722998300   -0.73801954395622
C          -7.10763145601865  -13.60912563900478   -1.83372154643300
C          -6.27149170999978  -12.43670420236014   -1.70493337134589
N          -5.70380035055854  -12.11577757605521   -2.86907959765210
S          -6.15901667279562  -13.15696833644857   -3.99578718538609
N          -7.10264974527202  -14.07391423396300   -3.08449900706543
C          -8.68765375530369  -15.26849152744375   -0.85175976508767
C          -8.94215556702440  -16.00359039036914   -2.00566548728712
C          -9.86396010549572  -17.01469697474651   -1.78367598901552
C         -10.31871598811864  -17.05736702575759   -0.44592857245220
S          -9.59677517662634  -15.85320292551379    0.52929230426879
C         -11.26189262918009  -18.10363276646207   -0.33140227493498
C         -11.40809577906276  -18.71963537844272   -1.59643095220582
C         -10.52044777103765  -18.06589155580406   -2.54206814161810
C         -10.32927304989084  -18.40260120715308   -3.84990936486108
C         -11.02963620267979  -19.48043188559416   -4.43232221707509
N         -11.61435751853628  -20.35953169040962   -4.87971525029610
C          -9.43045060384664  -17.70488902029094   -4.68435872989377
N          -8.70695172135575  -17.13323947677623   -5.36532393410316
C         -12.31495334330079  -19.76561131557766   -1.58827867083849
C         -12.86826821163401  -19.97311954803848   -0.32847504958491
S         -12.25796497876058  -18.81377031660972    0.84977208375200
C         -13.84661934821008  -20.90516942130947    0.06449402779390
C         -14.28156029281233  -22.02350032737868   -0.58818060819403
C         -15.60916438600435  -22.58571431763854   -0.21945832683341
O         -16.27696504150767  -22.30017585793696    0.74510769322711
C         -15.95129443917194  -23.51914660801836   -1.31740113603608
C         -17.12923107456901  -24.20288419234732   -1.53083714872752
C         -17.23028203511924  -24.99681084930447   -2.67487839111530
C         -16.15298306945780  -25.07883416909489   -3.57807461571972
C         -14.96005341400785  -24.39073156917836   -3.34647965266308
C         -14.86158725085988  -23.61471572481408   -2.20502552527088
C         -13.75553697656884  -22.80796483393583   -1.68330808323480
C         -12.43874018097230  -22.99308725559208   -2.01332875105288
C         -11.36777451677562  -22.37639940086128   -1.33634424430945
N         -10.47054512964542  -21.91052038104381   -0.79317969724393
C         -11.99438336656582  -23.89738702821055   -3.00251093961286
N         -11.58592326098433  -24.62530676328196   -3.78877586077200
C         -16.28502788751524  -25.87139312217930   -4.74567474845330
N         -16.38738866504140  -26.50707045861144   -5.69199824815874
C         -18.42393412310573  -25.71355805413940   -2.93276242738916
N         -19.39806610541849  -26.28409775441589   -3.12400226807670
H           0.05002900759947   -0.52088593538411    5.49858380610790
H          -2.19929639581731   -4.66260703139051    7.13975061581563
H          -1.27498672363250   -3.52299052093784    1.02562384015814
H          -1.74359340902315   -5.04548949651125   -0.75264451440046
H          -4.67677626928396  -10.25405987598729   -2.37230864965570
H          -8.46411722787762  -15.77921837541028   -2.94136266037647
H         -12.60973567463300  -20.32458116503701   -2.45733573952391
H         -14.39206059854575  -20.67347567759912    0.97453165212851
H         -17.95055878864071  -24.12428663035538   -0.83489767400978
H         -14.15703201394783  -24.46736735951869   -4.06254889906796
