102
 SCF done       -207.743842627982          0.000782621139
C           2.18566869102860   -2.40714107408908    1.78397380187940
C           3.15817282677181   -1.60026706588808    2.34977615206383
C           3.64266870627411   -1.93050913386102    3.61759633386979
C           4.64201062212647   -1.12060230553059    4.21234115025232
N           5.44897475755769   -0.46343954874773    4.68915901816756
C           3.16000915555972   -3.05367761495350    4.31579270766105
C           3.67230836791756   -3.36398512014621    5.59854289905477
N           4.07412700568564   -3.63336287235753    6.63639917146029
C           2.17868090388883   -3.86434213502302    3.74290552331728
C           1.71131212047843   -3.52893698259698    2.49046834839752
C           0.69490696856706   -4.22380192644786    1.67405299921230
O           0.07545942051317   -5.22146499930270    1.99933751202873
C           0.60308104346645   -3.47834535934271    0.41909329685500
C           1.49177128400940   -2.33512097694463    0.49546239191039
C           1.65680773591542   -1.33903945706175   -0.42994884293485
C           2.54080117819170   -0.24920854384206   -0.27159640649136
N           3.24195614078442    0.65630388485956   -0.20312729974842
C           0.96827417642634   -1.23537368535025   -1.65840112038312
N           0.44312975306338   -1.07380045700701   -2.66632349359793
C          -0.15649887104480   -3.83969607466475   -0.66907738822231
C          -1.02954092231446   -4.91814682394554   -0.84726353072086
C          -1.66743072768540   -5.15531523229800   -2.07475591824491
C          -2.47943779842850   -6.26873028118191   -2.04282163991802
C          -2.48523358214642   -6.89318291094071   -0.76838955065084
S          -1.47686453894658   -6.12393338024161    0.36414938861781
C          -3.33577706059464   -8.02109596136009   -0.84043634414419
C          -3.85709511001978   -8.12002725466353   -2.14449392340895
C          -3.33690287031299   -7.02504601828983   -2.94347379509641
C          -3.58757949993217   -6.77875715508840   -4.26136788520977
C          -4.41503733085160   -7.62136573067836   -5.03273759629345
N          -5.07886937620161   -8.31279377923139   -5.66239091328661
C          -3.02653393081028   -5.67683167736678   -4.94174875920432
N          -2.57270115816969   -4.78369139404415   -5.49847502518284
C          -4.70401860621592   -9.21231983376349   -2.31199439096946
C          -4.84326954621180   -9.95152118608714   -1.15269982460745
S          -3.90317379914567   -9.27049071464761    0.17346649515774
C          -5.62271250104316  -11.13756795448429   -0.94173811488461
C          -5.83713911870892  -11.62425944044863    0.34187614446238
C          -6.58870844286192  -12.76034587372919    0.58286868341059
C          -7.15696214778123  -13.50483417735505   -0.44375349162922
C          -6.94092233218424  -13.05254580220988   -1.78200079764319
C          -6.19790734207324  -11.86758267217505   -2.02694891926688
N          -6.02961134653114  -11.44129673468048   -3.29283993654151
C          -6.53783739891531  -12.11688072218230   -4.28924193290468
C          -7.26319795459519  -13.32150480173769   -4.04485829260658
N          -7.44727958991792  -13.74262981157121   -2.82140203872963
C          -7.82928511490487  -14.13559511950199   -5.15454128273302
C          -6.33110612782449  -11.58890131737660   -5.66519789767640
C          -7.93618867836488  -14.67331714844841   -0.15186624519162
C          -8.41321209840483  -15.62814103661357   -1.03102618888965
C          -9.14216205479842  -16.62374199064229   -0.38774911243569
C          -9.23008110298229  -16.42930294454008    1.00344016715146
S          -8.40390359480399  -15.02444635896120    1.50992799438389
C          -9.98518503846398  -17.48743349970239    1.55735680353700
C         -10.37517931207417  -18.35969727103565    0.51504751037359
C          -9.86068515844166  -17.83733212026940   -0.74037585162338
C         -10.03205666738952  -18.35552878142047   -1.99022607606332
C         -10.76212088937452  -19.54171086158556   -2.21851736505366
N         -11.35808154854336  -20.50246314416145   -2.40709707264064
C          -9.50615292195429  -17.72542960088739   -3.13757088865395
N          -9.08894198840071  -17.21388091317659   -4.07516907757191
C         -11.13881524926458  -19.42534238042395    0.96511128416993
C         -11.32332862827298  -19.40377783505003    2.34475907759103
S         -10.55723477429473  -17.99006260094721    3.07617315059149
C         -12.12217952343101  -20.31212221825467    3.06225254725826
C         -12.29224844110044  -20.47750871833286    4.40724694576369
C         -13.53901708807842  -21.11883833842077    4.89828480524122
O         -14.34513738126750  -21.74351865378148    4.25180853224037
C         -13.60883998702367  -20.76594325384201    6.33741268370141
C         -14.62993208388999  -21.00168714087264    7.23272123672303
C         -14.48178625790593  -20.52973428833113    8.53860308088584
C         -13.31737492512164  -19.83172138201361    8.91226800893806
C         -12.28201738578706  -19.61148098632571    8.00113482234253
C         -12.43236977099372  -20.08619701387536    6.71053282673568
C         -11.53210990250389  -20.04580394542916    5.55666549466465
C         -10.16946636347547  -19.91901581581298    5.62931974530169
C          -9.31640891263765  -20.21523838504756    4.54574632244683
N          -8.59895069958511  -20.49299102963624    3.69417614745650
C          -9.47299298598916  -19.58622987796823    6.80889843151463
N          -8.87084003972307  -19.29653977090807    7.74156381030403
C         -13.19617919819844  -19.33862338986656   10.23528266828146
N         -13.09500914420742  -18.92979307655810   11.29983140358138
C         -15.50994873662351  -20.74610855132845    9.48770568850264
N         -16.35279082273701  -20.92986526187717   10.24057516993953
H           3.55538904680053   -0.73286970062755    1.84753073999609
H           1.79807053397462   -4.72990503057031    4.26360803172933
H          -0.07074855809603   -3.21661385334347   -1.55116163366512
H          -1.51473497175645   -4.52042485091897   -2.92978960702174
H          -5.20751510245872   -9.48978652026839   -3.21870136953207
H          -5.41343395434941  -11.09341300782655    1.18220083489529
H          -6.73026826781067  -13.08214793661418    1.60467408289429
H          -8.58063179445356  -13.56114270895194   -5.69489985427515
H          -8.28556212705172  -15.04050249406915   -4.76279841950718
H          -7.04596503406911  -14.40421957502158   -5.86127122326523
H          -5.72266966860816  -12.28278918899507   -6.24401573965015
H          -5.83211588786033  -10.62444785755066   -5.62645532151522
H          -7.28636118293888  -11.48006075930354   -6.17552445969875
H          -8.21941684389022  -15.56406154529468   -2.08522889865978
H         -11.53962254409634  -20.20655134981314    0.34443807327980
H         -12.78638911615818  -20.91431321643121    2.44818819096252
H         -15.51950077762604  -21.53408782130883    6.93216569492539
H         -11.40373110115697  -19.07052778831726    8.31711673020917
