92
 SCF done       -199.464095987876          0.000498869861
C          -2.35354194271949    0.52174160868344   -2.57960584101623
C          -1.86645420099474    1.76375531077565   -2.95381307918194
C          -1.72163507333972    2.74510930214101   -1.97139529043855
C          -1.22376558272735    4.02163868160604   -2.33411414111557
N          -0.81989746183828    5.04976235941837   -2.63431950933089
C          -2.05941866644334    2.49243139125848   -0.62764309709771
C          -1.90250285867851    3.51092049996302    0.34338138399938
N          -1.78066506483051    4.32283879489302    1.14146454136185
C          -2.54535209647259    1.23904749322434   -0.25408948205349
C          -2.68252332013329    0.27909907868422   -1.23425258013033
C          -3.16627576202556   -1.11065124139418   -1.07870592354029
O          -3.50505035350219   -1.61977574468511   -0.03345983462325
C          -3.09605622563444   -1.71051092828443   -2.43022744001535
C          -2.62557191116188   -0.68981411521238   -3.35425052670621
C          -2.50116807562598   -0.78762287066201   -4.71463132099379
C          -2.04523146265025    0.26008900756985   -5.54598142288930
N          -1.68316861863145    1.06634500904767   -6.27726260077321
C          -2.82057309479510   -1.91480311008242   -5.50370025082556
N          -3.06392019605120   -2.77698951516887   -6.22191581111915
C          -3.33638305916099   -3.01103525464529   -2.79025074611985
C          -3.85862954343671   -4.09744473765284   -2.06503102859318
C          -4.41651465909449   -4.20896025969621   -0.79512751184871
C          -4.84683240537148   -5.49850832129114   -0.52480423279216
C          -4.61631984262023   -6.39869885003912   -1.59187744485343
S          -3.88387666338046   -5.64833506379226   -2.92494188375244
C          -5.08721967479507   -7.67823649685071   -1.20796097866604
C          -5.61522304952382   -7.59126318222847    0.09166014083743
C          -5.48508173392982   -6.22107778020193    0.56424801238246
C          -5.88832417752604   -5.73061136636794    1.76973140197830
C          -6.48915863131675   -6.56076736901918    2.74160349316892
N          -6.97005169041181   -7.24059316745808    3.52926947349957
C          -5.75209088013445   -4.37345072409181    2.13817253392906
N          -5.66643808608149   -3.27797741557897    2.46213986745469
C          -6.11571042459860   -8.80759856716417    0.55240057888044
C          -5.96362092873616   -9.81740670610514   -0.38039016371082
S          -5.19876967806868   -9.25543528077547   -1.85715657178695
C          -6.40863524054484  -11.16473833567968   -0.21916420188491
C          -6.20208082378801  -12.26906907676880   -1.01833599952136
C          -5.42089781112349  -12.24432601671901   -2.29142789026228
O          -5.92001873689818  -12.38898472048017   -3.36797183874169
O          -4.09716712365957  -12.04873960085960   -2.14973751482265
C          -6.89085442782840  -13.42757484984483   -0.55289346516092
C          -7.58890107241130  -13.16977274790832    0.60295136038713
S          -7.44699967438682  -11.55582649314465    1.12899388437260
C          -6.84888791481382  -14.73266711110388   -1.16369241845280
C          -7.78148119712384  -15.73440929417922   -0.99766124537979
C          -7.41960736263031  -16.90108840540516   -1.67492844182393
C          -6.19589142070357  -16.77855089018790   -2.35341168364772
S          -5.50490468738305  -15.23087069529702   -2.16729596420543
C          -5.89740063908769  -18.01688900226712   -2.98056597111780
C          -6.94280140442165  -18.91860381975426   -2.69281175978465
C          -7.92724311569461  -18.24943226879276   -1.85880873724722
C          -9.05212518348912  -18.80218397202103   -1.32108447854483
C          -9.38504500348791  -20.15328615818532   -1.55517485637865
N          -9.63048566750645  -21.25478249516621   -1.75787794751586
C          -9.92724323864983  -18.06470472721542   -0.49630220159332
N         -10.63055025770265  -17.45502534662614    0.17276618310945
C          -6.72206767891397  -20.18572584812206   -3.21017204042302
C          -5.51345210820601  -20.27262091976025   -3.88963524993110
S          -4.66838626163241  -18.72685460407225   -3.91390494801397
C          -4.94617092453525  -21.38638092389359   -4.53970444888294
C          -5.24692079746359  -22.70820896386615   -4.38074594350728
C          -4.84102970020884  -23.66494455433111   -5.44543226340010
O          -4.08695820850747  -23.45277111123217   -6.36421760654027
C          -5.59999912984052  -24.90493048237008   -5.16104174125271
C          -5.67765744184006  -26.05887119533431   -5.91153664751481
C          -6.49915618417569  -27.08917759194338   -5.45020438507829
C          -7.22961067263337  -26.93273685257378   -4.25639959354965
C          -7.13594890214693  -25.76366331200197   -3.49865878783835
C          -6.30788425798545  -24.75206484822952   -3.95274958910407
C          -5.97736780185501  -23.44778037569638   -3.37366175872492
C          -6.10495060778944  -23.14017542188752   -2.04497177942677
C          -5.56171098548592  -21.98681007743817   -1.44469424333986
N          -5.11468671044519  -21.07795290714727   -0.90458213565652
C          -6.70859861182117  -23.99075312312316   -1.09289432667871
N          -7.18201353233157  -24.64659559104636   -0.28002471873639
C          -8.07603556996495  -27.98151187528388   -3.81749701657275
N          -8.76326303963400  -28.82401526229217   -3.45956433925037
C          -6.60411631900550  -28.29275869483115   -6.18875364399859
N          -6.67544222722052  -29.25874951033180   -6.79928890288712
H          -1.59384446060946    1.99797099838559   -3.97017287627380
H          -2.80856729434580    1.02387185148331    0.77044762154334
H          -3.08617226106689   -3.27180677393378   -3.81183014465495
H          -4.48629767184389   -3.37602886789672   -0.11872462184150
H          -6.56791794338150   -8.96764227914873    1.51451255539215
H          -3.81610334688476  -11.97947116554758   -1.22745986526241
H          -8.16789471931209  -13.86333377360925    1.17882269774847
H          -8.68475635190865  -15.61296668265962   -0.42913536495575
H          -7.41565858398100  -21.00377806648302   -3.14158050329735
H          -4.21459331195853  -21.17559190217333   -5.31382362226979
H          -5.11971482046155  -26.16222407573305   -6.82973738305037
H          -7.71545246092940  -25.67185965633273   -2.59358990765223
