86
 SCF done       -181.647404443406          0.000343905407
C           1.77516456743262   -1.93900369248685   -1.04856581614452
C           2.75008840846594   -1.00487284111536   -0.74163649531492
C           3.67955856517147   -1.31469972101507    0.25387728964080
C           4.68518268317100   -0.37168687247345    0.58273379689571
N           5.49454873016211    0.39428021600702    0.84443107544988
C           3.63754767399784   -2.54477285763767    0.93736127811968
C           4.59375197658422   -2.82974695758209    1.94183215982661
N           5.35800943483250   -3.08080238068991    2.75665077201034
C           2.65386031916598   -3.48451927617832    0.62532963786540
C           1.74296888190008   -3.16634792402026   -0.35902551293668
C           0.62013246253539   -3.98000263307991   -0.86660928648544
O           0.31105376366762   -5.09416154824950   -0.48240391830089
C          -0.02312794924760   -3.18051829674139   -1.90983671952768
C           0.67783390161725   -1.91493191619883   -2.01919593018630
C           0.38541584994169   -0.86368903072972   -2.84645600654813
C           1.11696327922582    0.34409870748867   -2.88207265148299
N           1.67002467552845    1.34630892768105   -2.95796983592338
C          -0.67999063764473   -0.81497372063486   -3.77217770166936
N          -1.52396622542601   -0.69467699652244   -4.54090667302061
C          -1.10410308609061   -3.57453566700952   -2.66166230351889
C          -1.86658218215197   -4.74779225537735   -2.60960418409762
C          -2.96307079933321   -4.94886702890763   -3.46140569567357
C          -3.60710234414698   -6.14452637830638   -3.22168608067074
C          -2.99832063421400   -6.88158184003104   -2.17344453812882
S          -1.64188244774056   -6.10442426390679   -1.50142159291398
C          -3.74648711500673   -8.06556376807997   -1.98207435953034
C          -4.82492574613970   -8.08057356864145   -2.89091690252994
C          -4.76225488487990   -6.88085941053921   -3.71059032884173
C          -5.60855481838549   -6.52900347428172   -4.71979458763620
C          -6.70100010405331   -7.34172085553106   -5.09055450244767
N          -7.58676026467362   -8.00815977473773   -5.38339829063719
C          -5.44570273689995   -5.33767628751911   -5.45934066090660
N          -5.31386936630313   -4.37284459693492   -6.06351744585759
C          -5.64460920193359   -9.19393845837245   -2.74623107781191
C          -5.20446081066441  -10.03750310281468   -1.73468178776098
S          -3.74132980640520   -9.43817277899945   -0.96842492760280
C          -5.78741639761946  -11.23506526066782   -1.24966175055210
C          -6.99305714878386  -11.71430152294246   -1.64918515652681
C          -7.61401594072477  -12.87591409394989   -1.12708765252394
C          -7.12596697283568  -13.80925201086971   -0.22085134286521
C          -8.06840976598872  -14.78484824370971    0.08251950817987
C          -9.29133454688024  -14.59753972804346   -0.59288043629865
S          -9.26388833207446  -13.23055610390393   -1.61297309548994
C         -10.19041745518535  -15.60564240642081   -0.18167633189010
C          -9.53587476570878  -16.44954092619703    0.74231450646468
C          -8.18030184937800  -15.96283185897167    0.93262516167189
C          -7.21512511955192  -16.48939718326265    1.73847364343159
C          -7.43235636998798  -17.64978282638960    2.51263388492415
N          -7.60377240571454  -18.59641879514570    3.13536633799454
C          -5.93284417465760  -15.90880339084087    1.84126356850511
N          -4.89290096616756  -15.43266746008460    1.91847154448350
C         -10.35435375555832  -17.46839228003390    1.21229866768674
C         -11.64302392348505  -17.38799353915954    0.70149304983750
S         -11.80789489612460  -16.05660047129668   -0.44684784307713
C         -12.69946262476171  -18.28043763026542    0.97991969709031
C         -14.04077146890640  -18.11028648165123    0.80292969247215
C         -14.92606127548713  -19.30079331291378    0.70727369172347
O         -14.64600470414060  -20.44325978982178    0.97746815779099
C         -16.20037125343614  -18.78545633435802    0.15001783499805
C         -17.31529044117429  -19.49299260576001   -0.24613571101263
C         -18.39291770127115  -18.78047371737637   -0.77599299616336
C         -18.32413543062375  -17.37954127275760   -0.90110670705109
C         -17.19483064606812  -16.67106844530768   -0.48580087610331
C         -16.13352772052442  -17.38171795241793    0.04611499063692
C         -14.85469164200230  -16.93249125099318    0.59754029633112
C         -14.61610623824667  -15.68088522756349    1.10094322804883
C         -13.49432240388922  -15.36908108353517    1.89779239392094
N         -12.61529882027685  -15.09552480414290    2.58300566230739
C         -15.50392051101180  -14.59403613869910    0.96101294085398
N         -16.18604518031698  -13.67784811879619    0.85492078145254
C         -19.41909519470567  -16.67548036401837   -1.46151919352664
N         -20.29605729347080  -16.09814643706390   -1.91752338814726
C         -19.55733471169122  -19.46854559433460   -1.19536758161917
N         -20.49077965663606  -20.04052309903793   -1.53073811947675
H           2.81744291930056   -0.05201651892525   -1.24148535498934
H           2.60672977749849   -4.43262390198380    1.13917467114289
H          -1.45033715384910   -2.88140634871381   -3.41868759885309
H          -3.25048094746603   -4.22506890696227   -4.20365462734531
H          -6.51662855543516   -9.39030853162004   -3.34154815299221
H          -5.22921208157570  -11.75822463221175   -0.48638636141143
H          -7.56198726178326  -11.17218980631656   -2.39119187205467
H          -6.13390304269783  -13.76989422567420    0.18878085638602
H         -10.06300295574804  -18.22025690981355    1.92347699503917
H         -12.39969827835051  -19.26854389438834    1.31707896184826
H         -17.35389623462452  -20.56734285676522   -0.14935386095055
H         -17.17091049079427  -15.59847338412378   -0.59855491460239
