97
 SCF done       -211.131527327582          0.000516553171
C           0.49571745951817   -0.73536054752559   -0.44301373140407
C           1.33042126411294    0.35028845413538   -0.23580835716867
C           2.68953565154293    0.20731776697520   -0.52243766022476
C           3.56363408333822    1.30224393207965   -0.30870909547814
N           4.26432040429771    2.18979275411239   -0.13034381031411
C           3.21015222111385   -1.00513801747230   -1.01453489388875
C           4.59318794273700   -1.11799221899882   -1.29559784470211
N           5.70950341869154   -1.22950282037187   -1.52523559297356
C           2.36571712322352   -2.09751640872132   -1.21791548688040
C           1.02687266544044   -1.94452428738569   -0.92755274423546
C          -0.04898912680490   -2.95615361751535   -1.04279940918856
O           0.09726465841869   -4.10267640622059   -1.40352748278197
C          -1.27194336919719   -2.28519026781214   -0.54748151545660
C          -0.94323649014521   -0.90507177253287   -0.24375742844662
C          -1.81952568742361    0.09411021007672    0.08742026901539
C          -1.43595027501005    1.42706581744445    0.35100085984555
N          -1.18180695455430    2.52175567530881    0.58179649390193
C          -3.22131716523287   -0.05238717994571    0.17548400176114
N          -4.36650845257214   -0.09230029768967    0.24441963341575
C          -2.46202367870689   -2.88630704243893   -0.22803943295269
C          -2.92262859241137   -4.17530869858226   -0.54950562404346
C          -2.52568691838434   -5.08503582356394   -1.52441168670939
C          -3.27764203588321   -6.24868180785135   -1.48994413273225
C          -4.26425205640181   -6.24515277197002   -0.47461570269699
S          -4.28827252944542   -4.78882362420104    0.39733005356860
C          -4.92318367420044   -7.49709835006803   -0.48167271601608
C          -4.36375903776294   -8.28831965369255   -1.50474905910740
C          -3.32707159204691   -7.52638189222083   -2.18194838690783
C          -2.57185998624639   -7.93404844353318   -3.24133503364716
C          -2.71343385215822   -9.22235815365089   -3.80137289562267
N          -2.82357655669635  -10.27162139824694   -4.25063327870593
C          -1.61593243137998   -7.10061369359869   -3.86275151413601
N          -0.85307184247054   -6.43079254292605   -4.39430774231562
C          -4.92569028430277   -9.55728506329874   -1.57398539077296
C          -5.89999930777610   -9.74444812678213   -0.60587342650541
S          -6.13626225425547   -8.32107658504740    0.39014773819139
C          -6.61505140090049  -10.96114011547986   -0.38159695000424
C          -7.53721238860965  -11.15400304149175    0.64157432927114
F          -7.83316807688329  -10.12946333379548    1.46209673745296
C          -8.17399522299387  -12.37406539035494    0.89316746227054
F          -9.02667306113920  -12.41427336461625    1.93343377371752
C          -7.95388128574858  -13.52864877624480    0.14919945498819
C          -7.04784206602933  -13.35363275992500   -0.92755703155332
C          -6.40071096967755  -12.10974148933245   -1.18508573370506
N          -5.61613738017618  -12.28949095544442   -2.25679235911543
N          -5.79598948828211  -13.53322253909855   -2.59406609183063
N          -6.62027137874448  -14.21958812125541   -1.85705553419204
C          -5.13822877288713  -14.10495345751000   -3.72721729181448
C          -8.54269741694975  -14.79827786064389    0.43793047736977
C          -8.27272342287836  -15.97955108721716   -0.23507806065055
C          -8.95909748702486  -17.05624619519641    0.31428223035380
C          -9.76869281644706  -16.68980423048928    1.40826098015170
S          -9.67525822209126  -15.02441982626519    1.75782192016871
C         -10.40923320092941  -17.85259806441000    1.90206889393073
C          -9.99471510297741  -18.95518009441953    1.12210444933719
C          -9.07999893745260  -18.48719895235545    0.09494115775614
C          -8.47897689997334  -19.23729458130283   -0.87297527870943
C          -8.71001236257480  -20.62625711262318   -0.96613760069266
N          -8.91167794871562  -21.75390224442446   -1.01633964314211
C          -7.59607088813372  -18.67461980460691   -1.81878651754063
N          -6.86986053790145  -18.21498809652038   -2.57756327453229
C         -10.57019243175137  -20.14965834303041    1.52450958405573
C         -11.43166764198459  -19.98224809519443    2.60321678533069
S         -11.49175040844276  -18.30186571184205    3.13232519335372
C         -12.16002996970442  -20.95066369076713    3.31853655114555
C         -12.44675017532865  -22.24208334320619    2.97868666509079
C         -12.81662838494015  -23.19073267510240    4.06333620364104
O         -13.10801465837120  -22.91551011843404    5.20242394884077
C         -12.69238635049124  -24.53672995791781    3.45754569683525
C         -12.79380528724332  -25.76846190787619    4.06819665673631
C         -12.58738702455116  -26.90775680417800    3.28795885043577
C         -12.27912169022276  -26.78327488252454    1.91959765754002
C         -12.19026708886815  -25.53072344907160    1.30846954731548
C         -12.40542325357515  -24.40557859666095    2.08468447008884
C         -12.40055195031754  -22.98222439763648    1.73748226475701
C         -12.59220126120712  -22.49200053695737    0.47250618347769
C         -12.81915200487354  -21.13078388012529    0.18817283931934
N         -13.02644201424335  -20.03363570749091   -0.07750686582732
C         -12.68370400981427  -23.30157633761169   -0.68052546175037
N         -12.77383940279746  -23.91841321179736   -1.64303199470378
C         -12.04985188459795  -27.95170184689727    1.15084921017596
N         -11.86032823744358  -28.89172280777279    0.52585527349153
C         -12.67752952592634  -28.19192567931383    3.87761986600181
N         -12.75301769611445  -29.22099170633525    4.37398847909495
H           0.97025258668096    1.29302544999824    0.14400794494179
H           2.74687589011325   -3.03573340230606   -1.59161788691921
H          -3.14406673797636   -2.31807512990366    0.39405409205267
H          -1.72582524088604   -4.89164236551323   -2.21414337944778
H          -4.65953047618850  -10.33075272197515   -2.26981935756345
H          -4.27385833121929  -13.49023622474764   -3.96923801037935
H          -5.81823290376617  -14.12617663254318   -4.58068477521137
H          -4.84243097154381  -15.12588358439111   -3.49212059774616
H          -7.60208692020783  -16.01777563614879   -1.07328765866814
H         -10.34255006830966  -21.10953163954253    1.09856853522663
H         -12.47784110627943  -20.66792646097607    4.31785477542017
H         -13.02254824408800  -25.84933405029038    5.11996254288032
H         -11.94354113047007  -25.46938951552271    0.26020769711591
