89
 SCF done       -192.073532675718          0.000903249488
C          -1.60254561543955    0.21304495613328   -0.47183550667320
C          -1.13976903206388    1.50396361167192   -0.27492272615802
C          -0.93535130125274    2.31440677962504   -1.39312763433008
C          -0.46601009591866    3.63969840317174   -1.21327786340195
N          -0.09001471945725    4.70985755406505   -1.05958760368232
C          -1.18775418132442    1.84216258297859   -2.69585908832633
C          -0.96545072681517    2.68914143259982   -3.80859961996545
N          -0.79315663883142    3.36190755931552   -4.71891728331483
C          -1.66016936500158    0.54352359918593   -2.88911545981603
C          -1.86049127075145   -0.24550086720690   -1.77621773945591
C          -2.36236619622957   -1.63750258225834   -1.72993457579151
O          -2.69121852578826   -2.29762135649345   -2.68959046839539
C          -2.42359464260422   -1.98817445718358   -0.29176067097131
C          -1.89923299900771   -0.86586591365616    0.47011616497053
C          -1.63606255484235   -0.82888450743350    1.81315590898512
C          -1.10060765463307    0.29324277629907    2.48400904681187
N          -0.67215741578709    1.17099491053689    3.08535620192405
C          -1.81668620699851   -1.89884455299947    2.71769654014347
N          -1.91473173388535   -2.72327946992222    3.51036778035736
C          -2.98928642928811   -3.09867458113979    0.27612211507305
C          -3.44260148674347   -4.29965508456523   -0.30255379037595
C          -3.29084414595494   -4.84422476424708   -1.57378466893896
C          -3.85947675603755   -6.10540867964452   -1.67117019986424
C          -4.46383439882851   -6.53848161083216   -0.46913507734809
S          -4.30935907696308   -5.40100376410463    0.77974634009521
C          -5.02106485850878   -7.82537572850605   -0.68195847291483
C          -4.76286960379374   -8.20736345282428   -2.01462072156169
C          -4.02088189503430   -7.14629725391339   -2.67615682872742
C          -3.55723642974158   -7.13950272004237   -3.95744437772896
C          -3.78259425235640   -8.21768170546143   -4.84190161596602
N          -3.96661688749747   -9.08535565337056   -5.56771599045917
C          -2.80141911618953   -6.07395581567963   -4.49566196083096
N          -2.16795817568466   -5.23349162874414   -4.94866002632513
C          -5.26422434122280   -9.47359270964154   -2.31315520671038
C          -5.89310868811386  -10.03196307569337   -1.21924964988188
S          -5.87923444078629   -9.01173973106816    0.19306213414772
C          -6.51660048908384  -11.32179389860500   -1.13966025461428
N          -7.08505059496010  -11.65466216868749    0.01724339947614
C          -7.63540066639005  -12.86393120324418    0.05104713494075
N          -7.63987523909151  -13.72133148601043   -0.97591819218433
C          -7.05650940771289  -13.28305411126093   -2.07329345772641
N          -6.48372303169300  -12.10591530275308   -2.22230338393567
C          -8.27300520399083  -13.29479429344866    1.26200039784607
C          -8.43765412824146  -12.58853146230271    2.43535321144704
C          -9.12255704392469  -13.34515971579675    3.38604689155955
C          -9.46194634939103  -14.62903873849815    2.91164091738929
S          -8.94972116277978  -14.89923731493591    1.30914632673773
C         -10.14715785447065  -15.32251187443473    3.94429634160166
C         -10.24623330250661  -14.47101210929550    5.06300044912736
C          -9.59493024958601  -13.20772014216104    4.75282135867296
C          -9.43835641369373  -12.14488963319340    5.59298160916320
C          -9.93337091078152  -12.18265568205042    6.91415127778537
N         -10.34724380615093  -12.24006915408368    7.98185041008668
C          -8.77920237000025  -10.96220168831828    5.19530792183190
N          -8.25194593697765   -9.99917389329495    4.86710965421211
C         -10.88683347839822  -15.06589881769981    6.14073527445576
C         -11.27136289422286  -16.37223585876244    5.86535183751528
S         -10.85564631946753  -16.84139885746859    4.22023772139440
C         -11.95938790983580  -17.29329562537962    6.68190272099890
C         -12.16134683077968  -17.27905990176982    8.03012570762479
C         -13.25870816527966  -18.12156328766861    8.58373276986021
O         -13.86693274568415  -18.98980049648653    8.00687828742061
C         -13.47042238022025  -17.62369898257529    9.96144900348606
C         -14.45103169332311  -17.97915490812522   10.86319398684133
C         -14.47119851562668  -17.33324640775637   12.10052751964453
C         -13.51547996411687  -16.34257011408400   12.39819110555015
C         -12.51972546741692  -15.99814411280692   11.48184014548542
C         -12.49612435918312  -16.65140799071995   10.26188730819932
C         -11.57636537460042  -16.53727391892084    9.12713213328457
C         -10.29871165848106  -16.05223884333959    9.21183627901073
C          -9.34504257752781  -16.17351850865518    8.18142312674198
N          -8.53717089153047  -16.27566627827127    7.37279867595742
C          -9.75521649109050  -15.46358988123085   10.37518282753049
N          -9.26918733128846  -14.98754669238952   11.29802078768140
C         -13.56932084695705  -15.68133212087757   13.65086908808625
N         -13.61054466789796  -15.14215061448012   14.65956911837518
C         -15.46140325576824  -17.66925855022676   13.05556398568873
N         -16.27062113805905  -17.95457386856578   13.81353947066818
H          -0.93808642410668    1.90390646173813    0.70580475806864
H          -1.86255569151379    0.16418745119670   -3.87925368260822
H          -3.12772428083559   -3.06719450570501    1.35069033824813
H          -2.79306806691069   -4.32601848491160   -2.37300657947485
H          -5.19213667687444   -9.98469419588435   -3.25561906266455
H          -7.04630419738695  -13.94835284091066   -2.92716813845545
H          -8.07324015040784  -11.58548580303425    2.56140093902028
H         -11.11269542009638  -14.56959162028434    7.06661936251730
H         -12.46271259378649  -18.10411574279765    6.16290531653012
H         -15.18269482945082  -18.73396176248513   10.61820544939883
H         -11.80805069292944  -15.22918294599950   11.73806299918463
