99
 SCF done       -215.990615988113          0.001729707543
C         -19.81223493267533   -7.69510265374166    5.24045486590409
C         -21.15447162219081   -7.51035566988535    5.52601884923739
C         -22.02539837523171   -7.21878367768326    4.47397789268168
C         -23.40182207882739   -7.02147218390848    4.74838176564875
N         -24.51088916760730   -6.86055462825607    4.98172316048934
C         -21.56256200455686   -7.11491970445186    3.14851089846062
C         -22.47190538054917   -6.81841228508560    2.10461911287272
N         -23.19519497009628   -6.57929893345357    1.24981783121099
C         -20.20896498087549   -7.30190213557082    2.86376916025612
C         -19.35929669049504   -7.58629701421371    3.91145509131736
C         -17.90012628530089   -7.81409915366620    3.87440831675969
O         -17.19469955836816   -7.79987297251176    2.88219727511920
C         -17.49130866652349   -8.05351771107234    5.26049464915481
C         -18.67005251022742   -8.00076640182768    6.10524132038951
C         -18.73987093020288   -8.19663581285291    7.45845719186765
C         -19.93378435850139   -8.12085330469225    8.20966893225729
N         -20.86786374923529   -8.06970984521113    8.87380526129468
C         -17.65162417427324   -8.50420828958727    8.30446809525202
N         -16.82364019615331   -8.75800791112739    9.05773582715134
C         -16.20152066135917   -8.25664210708264    5.68625967380460
C         -14.99879119947624   -8.28095232423039    4.96757903770926
C         -13.76494742154347   -8.43312614349504    5.61849646096726
C         -12.69922989515145   -8.38847782988170    4.74528128975726
C         -13.11251700790541   -8.21624077287995    3.39848834523050
S         -14.80219093583297   -8.10004350607458    3.22304671450798
C         -11.95631035951264   -8.15435177337494    2.58778650618006
C         -10.81505873182412   -8.27727787781025    3.41469588849949
C         -11.24652589463487   -8.44062194374594    4.79284696266256
C         -10.45728365776739   -8.60356954299145    5.89227557188111
C          -9.04935938882812   -8.63416262427750    5.80109461389003
N          -7.90627799888221   -8.65694094291208    5.71890096633734
C         -10.99708456934474   -8.75207148268739    7.18849316214335
N         -11.43483829387378   -8.87129719621661    8.24106232412825
C          -9.62483441532724   -8.18743089131911    2.70776682749348
C          -9.85436004861668   -8.00379582870648    1.34823308949762
S         -11.56263108232597   -7.95197641537047    0.93697085082185
C          -8.91066377090716   -7.83271689554737    0.32180599055690
C          -9.22853684530141   -7.67667994182174   -1.03317067513331
C          -8.07784709003701   -7.46659187592362   -1.85818273029079
N          -8.18954628427756   -7.28777378962580   -3.17319094168815
C          -9.40476240258724   -7.32668578244180   -3.67738276915208
C          -9.53082561778893   -7.13147754046579   -5.14523199152629
O          -8.57405630311336   -6.90459367986492   -5.85355461226694
C         -10.90294806490454   -7.23474904375090   -5.67057327813859
C         -11.97696261077052   -7.44799331370973   -4.90308181389804
C         -11.91993438293969   -7.60286251273206   -3.43888761411184
O         -12.91047015757381   -7.76517741570903   -2.76019049052732
C         -10.55456238076544   -7.54697382729887   -2.85410029345193
N         -10.45531419453457   -7.71201195341419   -1.55178154483682
C          -6.87538907677636   -7.46337902373032   -1.14057108747388
S          -7.18815057281370   -7.73548595831014    0.54753766005568
C          -5.61644180445656   -7.23458842671068   -1.72054597721341
C          -4.36554350071697   -7.21016666475050   -1.11130994954977
C          -3.36247482682513   -6.91352758996314   -2.02354021831151
C          -3.85975667741785   -6.70839277731536   -3.33051261062600
S          -5.55385523889534   -6.89553821109469   -3.44387071900852
C          -2.77285505609799   -6.39244918326055   -4.17282173827243
C          -1.58219739220080   -6.39832768544729   -3.41106064717231
C          -1.91805301823266   -6.73048015163841   -2.03573428530668
C          -1.06239412477128   -6.83628324543959   -0.97984381658952
C           0.32694802067414   -6.62701196719579   -1.11837781066005
N           1.45378826920454   -6.45106103684814   -1.23022911161758
C          -1.51447146233369   -7.14921308798193    0.32000827590048
N          -1.88880439277565   -7.39617883963868    1.37475322968472
C          -0.46512249973174   -6.06189791392728   -4.16161434980951
C          -0.77648781956750   -5.82381073251774   -5.49715566677559
S          -2.50691729260226   -5.98765961485097   -5.80094146315684
C           0.13366270762226   -5.37225251032745   -6.47353635997344
C          -0.01938500991209   -5.24268034845812   -7.82298196090013
C           0.84204597981433   -4.27813559471475   -8.55802989389993
O           1.85219515799126   -3.75036493454795   -8.16135828140692
C           0.14901156959989   -4.05819307484215   -9.85068949504542
C           0.45065788321227   -3.15299488689050  -10.84565240417764
C          -0.38224040376178   -3.10480122873292  -11.96547278271884
C          -1.49597288984370   -3.96177597591090  -12.05890819488029
C          -1.78614092146532   -4.88329996929571  -11.05068631333206
C          -0.95495460927299   -4.92913519147055   -9.94562538229583
C          -0.97563612011689   -5.78736999125867   -8.76044932170696
C          -1.56254760962157   -7.02295931568941   -8.69491784633741
C          -1.29826437868822   -7.94089327962788   -7.65635528067056
N          -1.06474491964094   -8.71883982332528   -6.84572740102348
C          -2.40594376078925   -7.54606636348858   -9.69680935844614
N          -3.11012953667059   -7.99909640726350  -10.48096382365793
C          -2.33968673601039   -3.88592633127941  -13.19498889544146
N          -3.03035171778084   -3.83067174452194  -14.10580728785245
C          -0.11235320420674   -2.18312830298769  -13.00598985478700
N           0.12040389803689   -1.42697541718401  -13.83368598314484
H         -21.54878091912170   -7.58069250323374    6.52690331210554
H         -19.83685295895911   -7.22454616630925    1.85354853303843
H         -16.05730632719664   -8.40267802615331    6.74975643222476
H         -13.69206055514282   -8.55774031454114    6.68454119983594
H          -8.63667016872485   -8.24362222808037    3.12832779101833
H         -10.99100717545427   -7.11987429080928   -6.74240886896259
H         -12.96872296590225   -7.51255765275228   -5.32970465778850
H          -4.22639657094898   -7.39867561358911   -0.06178225461430
H           0.54089778337539   -6.00146807435101   -3.78686056598139
H           1.06427243324475   -4.97113302264832   -6.08164811211124
H           1.30472314983279   -2.49836422230638  -10.76052111430705
H          -2.64936033862638   -5.52264799999922  -11.14889630518937
