93
 SCF done       -199.261867416366          0.000881743848
C          -4.95730307695410    0.09359792961995   -0.04942596894756
C          -4.43240498405277    0.91685735047824   -1.02999298539913
C          -4.72786845451799    2.28076031237930   -0.97708238424447
C          -4.21482279957077    3.14472884134914   -1.97668756853912
N          -3.80074045521867    3.83721343051853   -2.78874799230598
C          -5.53076416578116    2.81463398376616    0.04921660820843
C          -5.80387899180534    4.20355097582330    0.08239662829654
N          -6.04033000682237    5.32287360338192    0.12514729672867
C          -6.06704142137754    1.97720327195733    1.02924920972383
C          -5.77964483857591    0.63073750069955    0.96032757982257
C          -6.25779906298180   -0.46335129305223    1.83673168999878
O          -6.93692992017113   -0.37235163909349    2.83121876286391
C          -5.76820836433812   -1.71435719487953    1.19786629088071
C          -4.81219123653545   -1.34678732132238    0.17707659669012
C          -3.77577354800771   -2.10450782311116   -0.30162098291361
C          -2.79367434264270   -1.62169623869319   -1.19382627538838
N          -1.97029417620332   -1.27237285742491   -1.91156216321137
C          -3.51109370556728   -3.42261542667843    0.11972056476673
N          -3.25327812044464   -4.48891707811405    0.45723991594036
C          -6.31474682637175   -2.90057197315153    1.59805692477081
C          -6.32568821191446   -4.14399765052333    0.94031091159577
C          -6.05185587791257   -4.43892824129374   -0.39082863566813
C          -6.19158477995644   -5.78870364635623   -0.66979734747423
C          -6.59064870648691   -6.54557692415966    0.45426613319055
S          -6.80425808925717   -5.58335839028936    1.83922940102658
C          -6.67870702445380   -7.90334142597312    0.06593724220277
C          -6.32440699216633   -8.00981426975249   -1.29277279935180
C          -6.00244291631227   -6.68538894962694   -1.79774633664424
C          -5.58081858159621   -6.34481678356250   -3.04896648524861
C          -5.41900636678432   -7.29621826426596   -4.07878214583135
N          -5.29405457554577   -8.06522720041731   -4.91934587003474
C          -5.28422198136252   -5.00423045268064   -3.37601919286614
N          -5.05378814300387   -3.90696772218207   -3.61612992112217
C          -6.37224149854669   -9.31795283461942   -1.76697311374377
C          -6.77092728431565  -10.21358781238784   -0.79034024185469
S          -7.08227643193216   -9.41437322577337    0.74632995810683
C          -6.95441924350170  -11.62747996128901   -0.91239493697392
C          -7.51853537994146  -12.38203523295404    0.10748918506712
C          -7.73349038649926  -13.74964823683820    0.00211140217140
C          -7.39153558839802  -14.48263924542088   -1.12672678475041
C          -6.78363701655972  -13.75921434113307   -2.19611401811579
C          -6.57283408961402  -12.33392578462918   -2.09182110261190
N          -6.00230687726278  -11.79604228245065   -3.16116897356643
Se         -5.69730773431642  -13.02887946776687   -4.35714174089224
N          -6.37268025896799  -14.27929219018823   -3.34450370537186
C          -7.64892622758733  -15.88705792615998   -1.21768185840469
C          -7.31557037865813  -16.75164891512881   -2.24659553591549
C          -7.74576717162015  -18.05231540931666   -2.00110087766922
C          -8.41940015016274  -18.18495964781197   -0.77212229320422
S          -8.51029503790969  -16.70848404658728    0.07799058718682
C          -8.83733480970524  -19.52654059310736   -0.62979684910455
C          -8.41602487250171  -20.25503311153684   -1.76406064808207
C          -7.71587797648368  -19.34911003600308   -2.66081724997440
C          -7.15320125207342  -19.64772232357024   -3.86568584932586
C          -7.17627997645923  -20.95475828382911   -4.39917087938489
N          -7.18592971090005  -22.01682212988373   -4.82986624006599
C          -6.50372011920428  -18.67471186351776   -4.65655869261625
N          -5.97234247671029  -17.89200176841199   -5.30361692384296
C          -8.78455559085073  -21.59202420340661   -1.71037851260528
C          -9.52537398438408  -21.89147447387388   -0.57352945771113
S          -9.70023516736487  -20.48405781796077    0.47867876396580
C         -10.01886655707472  -23.16523338016066   -0.22634845415823
C         -10.98119436620915  -23.50636894098881    0.67881880664422
C         -11.01006562981092  -24.88553475500290    1.23118733518134
O         -10.40078607704350  -25.84723860765724    0.82971021160816
C         -11.89896347400361  -24.80474548642015    2.41602167157249
C         -12.17631049181591  -25.77811650560189    3.35196997030067
C         -13.03161747910893  -25.45245205687598    4.40656720019709
C         -13.58187752761180  -24.15963158183528    4.49972055929457
C         -13.30322398753456  -23.18415106884284    3.54019802458493
C         -12.46142091888053  -23.51509859383685    2.49325782337045
C         -12.02146340223725  -22.74293531510763    1.33043012722948
C         -12.68917892595657  -21.66643846925787    0.80785445856181
C         -12.42836934372589  -21.14652163505335   -0.47747692490305
N         -12.27047409314705  -20.73008185081803   -1.53519760991556
C         -13.76680227152895  -21.02127949835271    1.44856515178785
N         -14.63213099762260  -20.45232397557918    1.94212458925954
C         -14.43220018457580  -23.84106085584825    5.58776474190215
N         -15.11609112704973  -23.57209652500256    6.46547058997441
C         -13.34281590790108  -26.42308695532583    5.38940140965271
N         -13.58198362129748  -27.21990555240346    6.17605095325302
H          -3.82090418013963    0.53850839332797   -1.83398145979224
H          -6.69107082306347    2.37185897922625    1.81659167360026
H          -6.87832333315734   -2.84475765347584    2.52485223955165
H          -5.81233765843950   -3.68730833177424   -1.12032813221314
H          -6.13624645114048   -9.63080343668709   -2.76695648172776
H          -7.81572714094029  -11.88375891399962    1.01876590483781
H          -8.19097676788668  -14.26302183626215    0.83532474417162
H          -6.78868231535014  -16.41863805626667   -3.12126773609224
H          -8.56921528260852  -22.32601135609820   -2.46593505545495
H          -9.50847937240858  -24.00369095847105   -0.69182381700661
H         -11.74483356834567  -26.76423174035177    3.27134886556625
H         -13.73745928397083  -22.20186874778334    3.64161850679037
