96
 SCF done       -201.384346937357          0.000892842587
C           1.77998003556178   -1.72127765061935   -0.31589728026951
C           2.76771400463988   -0.77307399861073   -0.10706433571378
C           3.91093653667012   -0.81733799146070   -0.90764525651118
C           4.93840300148795    0.13752544394786   -0.70500570798131
N           5.76677708873367    0.90908090921816   -0.53471851932689
C           4.06582545792077   -1.79526778536618   -1.90908950743889
C           5.23691486333832   -1.81259622835723   -2.70453112935881
N           6.17913187108559   -1.84452095081155   -3.35435655848892
C           3.06961846431760   -2.75117320814654   -2.11295036698493
C           1.94788972158756   -2.69869113931491   -1.31345794447212
C           0.77821139547506   -3.60746859527191   -1.32871905040156
O           0.64078803863340   -4.56558631228229   -2.05628419817599
C          -0.09982844484714   -3.13507957700048   -0.23503241753751
C           0.49103854890581   -1.94111839718877    0.33973298286130
C          -0.07499052699694   -1.10788383339479    1.26812575653386
C           0.54826045465948    0.05456605461861    1.77174351088785
N           1.00751838957185    1.00493231035460    2.22134312715827
C          -1.36325717054667   -1.26498489793837    1.82444486006520
N          -2.40559045351967   -1.31611425335141    2.30287088610122
C          -1.18043012646421   -3.79344537379969    0.29400863997481
C          -1.89368778855043   -4.89389326219648   -0.21128630983167
C          -1.96406700042683   -5.45171621984730   -1.48429219938071
C          -2.81850317206402   -6.54121275140878   -1.53132549378898
C          -3.41476599592984   -6.83674512044680   -0.28184772003650
S          -2.95184853845143   -5.74117060740935    0.92999469335664
C          -4.20423483776896   -8.00066513143951   -0.42702919708561
C          -4.11680212488599   -8.44079055936210   -1.76098821964815
C          -3.26569831343423   -7.52558210980377   -2.50444589469331
C          -2.96739694800195   -7.57612161253573   -3.83338945001950
C          -3.46168137367406   -8.59882953273787   -4.67246762974479
N          -3.85816713072778   -9.42780902513123   -5.35778558971404
C          -2.16890346455962   -6.60227083096003   -4.47312097862922
N          -1.54617228338168   -5.80628471972109   -5.01324190462006
C          -4.83273329226551   -9.61141284747228   -1.99594528737740
C          -5.46604813550271  -10.07902278620485   -0.85901668683304
S          -5.17792611805713   -9.02718632939501    0.52645590247915
C          -6.24560476421621  -11.27210600020613   -0.69193635544623
C          -6.88683868090249  -11.53597803479721    0.51161570589325
C          -7.58685744143853  -12.70891381397368    0.73844024646169
C          -7.69145779222851  -13.70737694095298   -0.22075706721907
C          -7.08988020179904  -13.45831714363638   -1.49437804673273
N          -7.21849393470462  -14.36108882532800   -2.48314642993909
C          -6.65723711712851  -14.12255084670441   -3.63730092123074
C          -5.92342282020687  -12.94445239486343   -3.85982650409805
N          -5.79655850758443  -12.04101255098529   -2.92632507390194
C          -6.37016794964064  -12.25121021754267   -1.72814616152785
C          -8.35902733029360  -14.94253101468667    0.07450324830091
C          -8.35111204296802  -16.11908802343936   -0.65132146360704
C          -9.07889257372611  -17.12972968159693   -0.02851311422326
C          -9.65828510129173  -16.72292605755296    1.18799797365221
S          -9.29536987995393  -15.09890340321122    1.55936589056274
C         -10.35364184624454  -17.82140248536326    1.74942057713276
C         -10.20678088119716  -18.92708797758858    0.88306983784393
C          -9.39698844211301  -18.52875703701043   -0.25600393788820
C          -8.99259717603758  -19.32242564620044   -1.28874347783289
C          -9.35161249681197  -20.68617137358027   -1.34191267389784
N          -9.65603215596550  -21.79151576358811   -1.35950046590706
C          -8.19758008552834  -18.83692993655718   -2.34876869243623
N          -7.55828965950145  -18.44149754006362   -3.21400263066987
C         -10.81680686720502  -20.07460681141135    1.36314823669406
C         -11.43465766546692  -19.86881454023991    2.59132042585456
S         -11.27227804148136  -18.19883051615599    3.12932609147420
C         -12.16479104270026  -20.78335057570067    3.37383284189167
C         -12.16199770369951  -22.14784013140257    3.31394500323257
C         -13.30804997435781  -22.88953277496100    3.90388401790197
O         -14.17238285783715  -22.44323500740534    4.61966652532328
C         -13.18619581979959  -24.26981485944973    3.37973294693394
C         -14.06040334811985  -25.32612344455257    3.52322664164169
C         -13.74144670205539  -26.53313545519293    2.89805596906381
C         -12.56098846771321  -26.64783202138145    2.13879558345827
C         -11.67802508162296  -25.57408431014784    2.00710468485471
C         -11.99308386185488  -24.38420930825681    2.63956425140654
C         -11.26828369952907  -23.11331887478675    2.71283160065954
C          -9.92107178168553  -22.97891915317623    2.50240777423876
C          -9.18829953889287  -21.81440394730327    2.80640374449458
N          -8.54801017860655  -20.89808604940595    3.06703023073297
C          -9.08488496929778  -24.02379244560453    2.05240613815180
N          -8.36314337087295  -24.83827653983507    1.69082662662642
C         -12.26547205716938  -27.87590383040481    1.49582405486835
N         -12.02226092309020  -28.86516071467707    0.97409936732188
C         -14.61185263638827  -27.64312338704521    3.02141220916090
N         -15.32999779239682  -28.52809235994966    3.13087469421666
H           2.68799325621898   -0.01168474899327    0.65229279656777
H           3.17171714179914   -3.51047518254788   -2.87337333577531
H          -1.52879915519547   -3.45402489011690    1.26276119219691
H          -1.40799645401991   -5.07055461972312   -2.32013889634516
H          -4.89942305217949  -10.13024906729649   -2.93385341059753
H          -6.82784061923303  -10.80807575339082    1.30804528529058
H          -8.04682569979263  -12.85862256049091    1.70462555801399
H          -6.78855241609118  -14.87410299931625   -4.40307576505139
H          -5.44351501747247  -12.73218002910831   -4.80489060168181
H          -7.83089983041117  -16.20723888005505   -1.58658407574771
H         -10.85873041869753  -21.01080849473456    0.83699215688190
H         -12.87743085334174  -20.36017988888111    4.07530953952483
H         -14.96599352400437  -25.22242684622475    4.10139631244065
H         -10.78703472665980  -25.69177735118749    1.41067759508266
