93
 SCF done       -199.340216087416          0.000791054520
C           0.75569770294774   -0.85008608843409   -0.93956089660894
C           1.61720076021175    0.23170766396554   -0.85738463473198
C           2.06376110028717    0.81781765906870   -2.04345883976603
C           2.94865174045141    1.92305861162027   -1.98116295935537
N           3.66550435738490    2.81355348914590   -1.91908838835686
C           1.65416158403291    0.33211902830048   -3.30025219702442
C           2.12243730388006    0.95205336009094   -4.48378664604923
N           2.49343371683810    1.43971629212432   -5.45116743034027
C           0.79048210886747   -0.76107366284573   -3.37847075192956
C           0.35961810893990   -1.33159102792127   -2.19983724116153
C          -0.53994954543995   -2.49551848839833   -2.03201912768927
O          -1.02959193037959   -3.13596434564847   -2.93605113267838
C          -0.64832105160561   -2.70590874044785   -0.57221546765621
C           0.11490159490012   -1.66439865712379    0.09414140245072
C           0.19447264812520   -1.41934035622143    1.43997099177735
C           0.95391874667467   -0.37421976970443    2.01095438023118
N           1.55357894055082    0.44961078490616    2.53829827342858
C          -0.47477946999492   -2.13517881110679    2.45668572132164
N          -0.99143687164988   -2.65105720572445    3.34308653972176
C          -1.25391658037200   -3.74636627999114    0.08636390229678
C          -2.07002482309476   -4.78980618194372   -0.38033553426402
C          -2.66890990939964   -5.04938336473397   -1.61048782577674
C          -3.41956313046113   -6.21306547398307   -1.59261776475129
C          -3.40252349931208   -6.86918488161292   -0.33695184642280
S          -2.48023767630621   -6.03399417582188    0.81675474969192
C          -4.16296712215768   -8.05520072067588   -0.44099555721744
C          -4.66539839805442   -8.15629660351721   -1.75221667672337
C          -4.22791172090590   -6.99641544005074   -2.51414834647816
C          -4.52833043854522   -6.70942922973032   -3.81192392589313
C          -5.32468436224903   -7.56823638728493   -4.60159351279925
N          -5.96805523863082   -8.26157862885368   -5.24922520495328
C          -4.09042904113261   -5.53409639216698   -4.46221187213526
N          -3.76493708054460   -4.58126422468613   -5.00919644661891
C          -5.41580601788292   -9.31055486476604   -1.95789759854267
C          -5.49026977043081  -10.09436837417224   -0.81955141089875
S          -4.62225463194848   -9.38123613101794    0.53219991882966
C          -6.14173108142070  -11.35965727655365   -0.67655960315641
C          -6.14238616884471  -12.06381073071686    0.52244789480444
C          -6.72359562881318  -13.31663487178279    0.66129403186549
C          -7.35240620004933  -13.97813926747661   -0.38769404032068
C          -7.40507251563357  -13.28181023584896   -1.62588780593596
C          -6.80567953981110  -11.98172730131536   -1.76891429378642
N          -6.96112153703757  -11.50353505532143   -3.00284965394923
S          -7.77304456386082  -12.56509757261869   -3.88871026500711
N          -7.97066672571379  -13.68855238717637   -2.76181669137336
C          -7.88896010751760  -15.29656355895567   -0.24766069026729
C          -8.44826925526718  -16.08677496104467   -1.23636595624684
C          -8.81994196990589  -17.34025796711975   -0.75784408605242
C          -8.54928420238028  -17.50797832777510    0.61370464895247
S          -7.83594999198260  -16.12080160870925    1.30449975030699
C          -8.92910802970438  -18.81665595912425    0.99566494472622
C          -9.43938302156292  -19.47935146516895   -0.14249727222411
C          -9.38156228754892  -18.57546109349448   -1.27879824814786
C          -9.73274182558849  -18.85816910364643   -2.56578497350735
C         -10.22097284443060  -20.13322519332126   -2.92292177832967
N         -10.61339824891466  -21.17796612246456   -3.18615446141182
C          -9.62251235533241  -17.91027315555860   -3.60551645660087
N          -9.53836533328030  -17.13975587164967   -4.44979670728503
C          -9.78956046975548  -20.79582255259456    0.11111275491367
C          -9.55449651762068  -21.15876694869026    1.43224958331611
S          -8.92145532802131  -19.81085162865206    2.37464426516833
C          -9.78385774595726  -22.39601709511985    2.06309466066167
C          -9.95716042734182  -23.62580071753511    1.49478511310522
C         -10.60017133164736  -24.69742899849126    2.30072447058778
O         -10.82523409237508  -24.67901468785847    3.48720318667933
C         -10.94734377220918  -25.75858863157979    1.32727606170606
C         -11.66134063777836  -26.91920378229628    1.53642570872799
C         -11.89366274675393  -27.75445976936471    0.44203804589175
C         -11.41452262268191  -27.40035066195640   -0.83390145630726
C         -10.68430991674633  -26.22682812618431   -1.03284957271930
C         -10.44428419972287  -25.41034900262634    0.05839408970580
C          -9.69403924018339  -24.15742587301128    0.17556384230149
C          -8.72602880854579  -23.75286235130939   -0.70572980039640
C          -7.83502886001783  -22.68812387195693   -0.46553300323749
N          -7.06936544521272  -21.84849684637139   -0.30285011683476
C          -8.43373932205830  -24.41781379057532   -1.91658917109107
N          -8.15237918385705  -24.92604904969070   -2.90546847020735
C         -11.67955102369701  -28.25128595971273   -1.93595896897205
N         -11.89256890606707  -28.93401456068393   -2.82972733154779
C         -12.61934782422772  -28.95799706608392    0.61460061568286
N         -13.20925713461880  -29.92625633198596    0.77467303739865
H           1.95687445634311    0.63255814486548    0.08401331038623
H           0.46653394515995   -1.15075609634179   -4.33159113232378
H          -1.07114276209897   -3.79978647487527    1.15323641521765
H          -2.53645799238555   -4.40943461719169   -2.46410068835975
H          -5.89122138617545   -9.59835414756142   -2.87741873641680
H          -5.65832112276702  -11.62289641212882    1.38180590696951
H          -6.67019806360444  -13.80527868846041    1.62332364407562
H          -8.55926931322858  -15.74058067012338   -2.24752536663575
H         -10.23531326960411  -21.45962601272362   -0.60706328066451
H          -9.90121058012071  -22.37435213342441    3.14240712486221
H         -12.03028763120421  -27.17437722728944    2.51818488482339
H         -10.33900939315689  -25.98039065428956   -2.02451455536347
