104
 SCF done       -245.107343265281          0.000624126399
C          -3.13222723384155    0.18208966428618    1.88033845043493
C          -2.65326397016555    1.38122381749202    2.38069461004920
C          -2.42582538100324    1.48563061158268    3.75471336942215
C          -1.92699226482230    2.70149113013666    4.28562445188300
N          -1.52163112574465    3.68530082669708    4.70732906379842
C          -2.67774306785258    0.40597275104888    4.62276000044342
C          -2.43495732000169    0.54300926771023    6.01103369751114
N          -2.24334067746208    0.63345494333597    7.13619748110830
C          -3.16048536930603   -0.80120297045973    4.11542237036399
C          -3.37553341461618   -0.89292606545196    2.75679456341361
C          -3.85802376067754   -2.05411361481580    1.98267323683340
O          -4.17965189832088   -3.13608571310624    2.43756000165374
C          -3.85214024211096   -1.63605133530418    0.57760426674355
C          -3.45997038969468   -0.23899173421930    0.51633642443404
C          -3.43261062600618    0.57196552144035   -0.58551185157711
C          -3.05143420997909    1.93206322255872   -0.55819076023729
N          -2.75001923649020    3.03799993934305   -0.59838858850524
C          -3.80078928574288    0.18907638936238   -1.89451133901046
N          -4.09482256744720   -0.04332451246196   -2.97914603149158
C          -4.09550779439950   -2.45341744496667   -0.49742712164884
C          -4.45594675762282   -3.80871130509169   -0.54388615291784
C          -4.56655877884135   -4.49710180898728   -1.76038579188713
C          -4.91780015490416   -5.82070990768786   -1.58607728257024
C          -5.10362871030747   -6.15120159603026   -0.22033387879122
S          -4.81778975411347   -4.84887185247221    0.83412614673629
C          -5.44443628914447   -7.52385161421355   -0.13510493812981
C          -5.46581738847431   -8.05840707028931   -1.44315196729889
C          -5.15190265072206   -7.00595923544026   -2.39638110466649
C          -5.09939369824675   -7.11101657272681   -3.75425397468913
C          -5.37195023781372   -8.32884144385852   -4.41420108877372
N          -5.60224738751863   -9.32101068264574   -4.93968113822702
C          -4.77788172928371   -6.01361466975471   -4.58178925294762
N          -4.51275684040692   -5.12150657167027   -5.25057262411338
C          -5.75982889702640   -9.41030147389223   -1.45081214458453
C          -5.99030461408303   -9.91017164377925   -0.16744322701799
S          -5.84254726606245   -8.66476136524382    1.06649072606519
C          -6.26492204757600  -11.27538029109506    0.08623951565114
C          -6.69396316959113  -11.95480116566761    1.22613561013047
C          -6.94130160876537  -11.31412104287085    2.49764631255595
O          -6.69395745031416  -10.14030743374938    2.73596468476937
C          -7.51428159077910  -12.20208198822683    3.52316568808124
C          -7.70568656494343  -13.59159900357006    3.30823443633935
C          -8.24232803761420  -14.21069712015622    4.41381493307344
S          -8.52269229604025  -13.12607957267277    5.71465193123032
C          -7.91269898638654  -11.81940687686468    4.78319800841458
C          -7.87437986152010  -10.44393753575773    5.37696039629024
F          -6.63219573255189   -9.97198792643414    5.50604416876173
F          -8.57573306447493   -9.55802897547833    4.66409671758739
F          -8.40931116303913  -10.44794508275865    6.61002640609381
C          -8.59079933151880  -15.65938365915232    4.57390211566292
F          -9.50336268921175  -16.06959921312891    3.68918759854082
F          -7.52779704296734  -16.46067068936281    4.46441581485197
F          -9.11325891671756  -15.88654229555527    5.79129409684498
C          -7.36009991255616  -14.25197352430984    2.03843431620490
O          -7.50622662473108  -15.45764350180847    1.88719891820558
C          -6.86828299795275  -13.35964629294576    1.01519108781499
C          -6.53154419565465  -13.76897059374105   -0.27626465032738
S          -6.06210555771212  -12.39114217869590   -1.24010743084558
C          -6.47818533279602  -15.04054233081934   -0.89381844437708
C          -6.02361292424980  -15.22580006776762   -2.20196716026467
C          -6.01105842405108  -16.55781870435290   -2.57227232881636
C          -6.47484214021978  -17.40376258603733   -1.53935128123838
S          -6.91476185701628  -16.56231490504997   -0.12397805072627
C          -6.41104838568107  -18.74036126873627   -2.00761288609633
C          -5.90175898020683  -18.73565406925859   -3.32437549198056
C          -5.64620970923558  -17.36410690111803   -3.72632496050410
C          -5.18194454657804  -16.93910001542176   -4.93586141825397
C          -4.89619704454265  -17.85708881046349   -5.96884534765560
N          -4.67017998571777  -18.62688312849170   -6.78795349587020
C          -4.95693137268810  -15.57361019125226   -5.21173117098092
N          -4.76331582525123  -14.46273034440389   -5.41613178560412
C          -5.80221666715896  -20.00575516423606   -3.87183116482540
C          -6.23970920164518  -20.98985370797113   -2.99355621802120
S          -6.75081411639805  -20.31008566843432   -1.45206082700645
C          -6.25496954132584  -22.38897506209739   -3.16863743669002
C          -6.14546426102635  -23.11426878770131   -4.31824176443124
C          -5.74075287550917  -24.54455108246674   -4.21532887641273
O          -5.70607635597532  -25.21847019183717   -3.21486648894186
C          -5.33887231648295  -24.93056347230517   -5.58711503322627
C          -4.75813920566529  -26.10552197130686   -6.01527399980749
C          -4.42385688566113  -26.21922191806433   -7.36591978173033
C          -4.67284148430815  -25.15167299951067   -8.25013395580302
C          -5.27141896170777  -23.97007668930633   -7.80821000199908
C          -5.61087128979617  -23.86728248899857   -6.47046458830333
C          -6.25805218936259  -22.78607073495577   -5.72370739504335
C          -7.04260928212177  -21.81556473451724   -6.28709187384481
C          -7.84140089931742  -20.92465608931192   -5.54228936660130
N          -8.51907966906487  -20.19785998144045   -4.96855536424486
C          -7.21917794333186  -21.65616870360046   -7.67932731191321
N          -7.39906817660374  -21.49489357678169   -8.80002277934657
C          -4.30407572232599  -25.27919013567687   -9.61287744003603
N          -4.00502907647588  -25.37600801037009  -10.71346426857175
C          -3.82244890383926  -27.40800559731531   -7.84606745623931
N          -3.33497640679715  -28.37637820805650   -8.21413301335541
H          -2.44534606683849    2.23041210923787    1.74974439042114
H          -3.35707677045644   -1.63995623390641    4.76580492414910
H          -3.97270048331085   -2.01618970332761   -1.48119495217361
H          -4.38450418259483   -4.02079202668552   -2.70767140123239
H          -5.81767665376745  -10.02427622782002   -2.33249662278616
H          -5.71217629601835  -14.41006694449856   -2.83080078198323
H          -5.38607199018578  -20.22260002214230   -4.83844515369443
H          -6.28260522742684  -22.98413402198680   -2.26060367664815
H          -4.56491632711334  -26.91272950378371   -5.32521813928971
H          -5.43977817567887  -23.16753903830499   -8.50898763424058
