91
 SCF done       -199.861152417629          0.000843131447
C          -2.42332428929021   -0.68187996331380    2.84336419287574
C          -2.24124766305010    0.50879249756878    3.52619560576761
C          -3.05162651433587    0.77199824623441    4.63282204433665
C          -2.88608462636994    1.98850837112247    5.34103160432301
N          -2.74926067431735    2.97385697763610    5.90733453832339
C          -4.03169730827917   -0.14567887850533    5.05668674436851
C          -4.83709955124362    0.15055945048325    6.18285026540095
N          -5.49750734997354    0.37305122660051    7.09152288176184
C          -4.21341125919337   -1.34449978147203    4.36522597465439
C          -3.41077646522640   -1.59006831577973    3.27175636183702
C          -3.41760332297407   -2.76257666320961    2.37288246644037
O          -4.13706151901105   -3.73990530470797    2.47229726491596
C          -2.40500996614953   -2.49379022067698    1.34960029681378
C          -1.74919276303198   -1.23932974735840    1.66870949276850
C          -0.66676066466095   -0.68137284948961    1.04355327300050
C          -0.07164678836030    0.53985587237097    1.43025935422514
N           0.45241227517964    1.52465221575617    1.69757514236557
C           0.03087602447577   -1.24712416523030   -0.04653793924872
N           0.65620674689934   -1.64975390731579   -0.92070520703014
C          -2.17267608448627   -3.26470046933798    0.23719646720527
C          -2.73684833930989   -4.48600468088844   -0.15439744123159
C          -2.39871853914191   -5.09284540983483   -1.37282451529741
C          -3.03939799769530   -6.30037567634331   -1.55605737175052
C          -3.87271347550278   -6.63978736114838   -0.46050279126982
S          -3.88484877820979   -5.46099439669460    0.76557287334668
C          -4.46335852355847   -7.89924926572220   -0.73149528664959
C          -4.00732162373910   -8.35133032238545   -1.98864648412007
C          -3.10810384269215   -7.36059729646038   -2.55125749402776
C          -2.47354946980219   -7.41062735412239   -3.75701142627777
C          -2.62557178420192   -8.50150124716094   -4.64002821431821
N          -2.74698243856468   -9.38500827573386   -5.36027831916743
C          -1.62978500789837   -6.37188701846503   -4.20605986765926
N          -0.95136625601173   -5.52453610206243   -4.57406280461426
C          -4.52320174561473   -9.59759989823180   -2.33321529940591
C          -5.35923656134699  -10.08537883254903   -1.34591063862140
S          -5.52425394686916   -9.00680940701042    0.01974675873795
C          -6.04828754620378  -11.33464315355275   -1.32651262764979
N          -6.78924370053252  -11.61113838948205   -0.26353742744230
N          -7.43381237854216  -12.72473259895250   -0.12103197466630
C          -7.41290964255458  -13.69395290055147   -1.02423998448736
C          -6.66861586950418  -13.51656056440049   -2.22543077355417
C          -5.95671221244553  -12.28548026592373   -2.38322783995412
N          -5.29866465556974  -12.23465703350463   -3.53813785369733
S          -5.55406384323154  -13.60133645267059   -4.34285281139555
N          -6.50775029866561  -14.32372842480140   -3.27044048102553
C          -8.13742650657825  -14.88680423972365   -0.72919051597215
C          -8.23063385979653  -16.03354509009607   -1.49576842081640
C          -9.00917784592237  -17.00094695637417   -0.86639650413992
C          -9.50545308000128  -16.57355835461927    0.38394200896342
S          -9.01247081449493  -14.98841898970037    0.78052389684133
C         -10.26704365688964  -17.62972899278736    0.94628346984296
C         -10.24894985056989  -18.71923441488572    0.04931055528922
C          -9.45027649510116  -18.36209675124391   -1.11132933125890
C          -9.15055242725748  -19.16500260551841   -2.17241358481229
C          -9.62578878345098  -20.49218105429055   -2.23738154944614
N         -10.02522640782050  -21.56673552821306   -2.26523486669427
C          -8.35152744384301  -18.72694519347271   -3.24992313489455
N          -7.70828630866979  -18.37032928599759   -4.12907241780738
C         -10.93865093607865  -19.82359543191559    0.52388400338865
C         -11.48560528357763  -19.60033575653683    1.78187292933214
S         -11.15720284858654  -17.96790947421644    2.35446703634026
C         -12.26158152489677  -20.47401438443827    2.56976434677821
C         -12.38414830314729  -21.82928075706237    2.46755247546269
C         -13.56546167046415  -22.48743777159913    3.08963200757667
O         -14.34536085455496  -21.99475546424426    3.86829744831713
C         -13.60307802317841  -23.84699846337431    2.50283711535578
C         -14.56876361396860  -24.82064286415026    2.64593905380454
C         -14.40051750635851  -26.02045334564296    1.95215463567597
C         -13.27529087601316  -26.21046905569390    1.12685704325533
C         -12.29814811370275  -25.22160250908747    0.99659603115352
C         -12.46373970476644  -24.03953845090740    1.69695244543866
C         -11.61532397138784  -22.84901802634801    1.78618745517183
C         -10.27247765038215  -22.83474311875764    1.51749930378766
C          -9.41851034244067  -21.75793155729242    1.82988664534197
N          -8.68291786644487  -20.91581882658922    2.08865771118676
C          -9.56315627939108  -23.93445042115110    0.98648038085275
N          -8.94248916295141  -24.80181134394135    0.56523709306175
C         -13.13454833858447  -27.42745153707704    0.41392690006899
N         -13.01773212295341  -28.40731382198810   -0.16610944695119
C         -15.36929235997625  -27.04641132333614    2.07083959058056
N         -16.16274835279576  -27.86477805667941    2.17977311264949
H          -1.50361007203027    1.23805514057567    3.23195891356230
H          -4.96179399011475   -2.05787780134180    4.67533902596986
H          -1.45104584820308   -2.88579353761310   -0.47670455026419
H          -1.70947076526615   -4.64232214832079   -2.06509504233260
H          -4.31803921330397  -10.14247004141953   -3.23689897140555
H          -7.74697765443336  -16.13098780095936   -2.45097023745590
H         -11.08444255835711  -20.73582478875753   -0.02513050795017
H         -12.90231042199619  -20.01347770396932    3.31555822792170
H         -15.43095486088334  -24.65894949309762    3.27487934508259
H         -11.45317519109188  -25.39430486201139    0.34880814388923
