92
 SCF done       -199.697911232350          0.000743770930
C          -2.07079939835215    0.70843737780883   -1.91760056823175
C          -1.68077347277867    2.01633419686497   -2.15552393214106
C          -0.99702616242870    2.69991868666711   -1.14828151093144
C          -0.58916681788603    4.03865617127810   -1.37231401486197
N          -0.26095016109859    5.11877318506021   -1.56195376593813
C          -0.70443100977158    2.08622505597189    0.08512147739583
C          -0.01045454184810    2.80840410274439    1.08592275394165
N           0.55150228583878    3.37704595443062    1.90558940553011
C          -1.09497501583157    0.76718233717820    0.31888190463514
C          -1.76922975263096    0.10392580971334   -0.68422188216440
C          -2.27365477772649   -1.28769205518989   -0.67063494754878
O          -2.14202911538771   -2.07205829842488    0.24232835888138
C          -2.89141029581378   -1.49847239513574   -1.99914951346125
C          -2.79713286213806   -0.25489268493889   -2.74562795558888
C          -3.34325106822763    0.02303665243506   -3.97074643439399
C          -3.22526603895184    1.26870244311336   -4.62649464313692
N          -3.16263138801448    2.25224078580213   -5.21368049281998
C          -4.12323508155132   -0.85932890396207   -4.75022474775984
N          -4.77943262630614   -1.50524850590592   -5.43625606544285
C          -3.37698392968636   -2.66905521217595   -2.52210117706663
C          -3.64226105083617   -3.91010994701127   -1.91661070127745
C          -3.66993689383152   -4.32454345645111   -0.58821208434038
C          -4.06810355188387   -5.64583221039892   -0.46084502298599
C          -4.34224785461260   -6.26688765668297   -1.70156085578428
S          -4.12534154055927   -5.21487610142902   -3.01488060938620
C          -4.73732133841953   -7.60401882181880   -1.45391474820296
C          -4.72329681937411   -7.82975764939507   -0.06707476967073
C          -4.29830379002246   -6.61129217240117    0.60418236835132
C          -4.15482656960027   -6.41593549063067    1.94480442863976
C          -4.38196256720532   -7.44797846668783    2.88241167094078
N          -4.55363159196728   -8.28294633799328    3.64843906100424
C          -3.77738946121880   -5.17454893295973    2.50434262187194
N          -3.49252449181854   -4.17481321187450    2.98591951933048
C          -5.13551009034081   -9.11879934656354    0.27711801447779
C          -5.45101685288441   -9.87538418288193   -0.83319529740004
S          -5.23217747614900   -8.98178123057194   -2.32962940812751
C          -5.92327998434429  -11.23603354128349   -0.88942040992503
C          -5.82287112971503  -11.98750796051768   -2.06474972270261
C          -6.27531052769607  -13.28443583602050   -2.11819331510334
F          -6.13549818725326  -13.94796243053022   -3.28248419758177
C          -6.87670940349171  -13.92972733191239   -1.02749434327971
C          -6.98388723719172  -13.17383558778279    0.14639002736117
C          -6.51971792718910  -11.88091466661299    0.20537576195862
F          -6.67880287695490  -11.22262359427801    1.36459816135445
C          -7.36615922100201  -15.28344400094585   -1.08717387043711
C          -8.18678333517633  -15.90340922446154   -0.16213259404824
C          -8.46465168381211  -17.22419283139643   -0.50941825878938
C          -7.83984466632447  -17.61472943948609   -1.70771323405012
S          -6.93593606142388  -16.35309271729582   -2.40796763414475
C          -8.16614875251257  -18.97153681583528   -1.96563321397782
C          -9.00755556833948  -19.42854130279579   -0.92987259524457
C          -9.21243461388733  -18.35038519496185    0.02267492653715
C          -9.92037515931523  -18.41455798686960    1.18657770096646
C         -10.56421647030707  -19.60591503293501    1.58328481606739
N         -11.07787804786198  -20.58696974086989    1.88039865653891
C         -10.04110466425184  -17.30601729498719    2.05073083631627
N         -10.13696650440514  -16.39521904273158    2.73994464348217
C          -9.36085632107857  -20.76199770979124   -1.06716001259997
C          -8.78943922843338  -21.34386365895197   -2.19199485937385
S          -7.83218279404198  -20.18349571288361   -3.10926972069824
C          -8.91730896690395  -22.66344921945921   -2.66822894788643
C          -9.36415943547480  -23.77316735485992   -2.01162157164892
C          -9.81251015916444  -24.94041689683207   -2.81934938444310
O          -9.63331840145283  -25.11827144994405   -3.99995119833036
C         -10.56722729183903  -25.79634681703744   -1.87537980458357
C         -11.29648573083847  -26.93599441151050   -2.14042637760706
C         -11.96688357593185  -27.54874885291890   -1.08013490547593
C         -11.89803079717190  -26.99889525088463    0.21455369321512
C         -11.14613302815384  -25.85132874954741    0.47454183987761
C         -10.47167152530283  -25.25687161312575   -0.57752520620560
C          -9.59335316970994  -24.08509817920418   -0.61692471734174
C          -8.92041700230744  -23.58808768032232    0.46750202601845
C          -7.89781337870946  -22.62222462559717    0.38266086443066
N          -7.04197343784419  -21.85815095022086    0.35016549156326
C          -9.10098540317779  -24.05494369219968    1.78819141010082
N          -9.21074977237762  -24.40139290273196    2.87570286320859
C         -12.60941723593669  -27.62053521199092    1.27123619938666
N         -13.18432212862049  -28.11702952985478    2.12742805931457
C         -12.72642828460393  -28.72166635592139   -1.30941469257249
N         -13.33458662583468  -29.66978126285937   -1.51492635651933
H          -1.88207799175911    2.52119722918046   -3.08660988040182
H          -0.87922772187807    0.27802875957104    1.25665553343763
H          -3.60387484910954   -2.65813175316006   -3.58178082323377
H          -3.40328693294792   -3.67646357405085    0.22675423537117
H          -5.19091761442490   -9.48700179856901    1.28442348891353
H          -5.37506383286284  -11.55908199952203   -2.94819607135628
H          -7.42551485192721  -13.59368758064383    1.03470161677328
H          -8.57900287920342  -15.41657531176753    0.71100529449202
H         -10.03718050285943  -21.28430373892690   -0.41578202215715
H          -8.69493330848527  -22.81926553916399   -3.71969355493753
H         -11.34918155904095  -27.34130489191029   -3.13944779370179
H         -11.12077906685618  -25.45053962549452    1.47564670717248
