89
 SCF done       -197.632421110356          0.001076936859
C          -7.72972144008543    0.39420905726009   -3.20223880762070
C          -7.98972473157514    1.57940295653868   -3.86943731008378
C          -8.51099863768785    1.51454157678546   -5.16349923066355
C          -8.78845506235692    2.71649227714301   -5.86179109995757
N          -9.01126021685140    3.69093369281712   -6.41951540088401
C          -8.76854944157600    0.27907226425303   -5.78771819160191
C          -9.29856725321287    0.24706840794379   -7.10036176662095
N          -9.72827600795960    0.19913043845019   -8.16080314673179
C          -8.50440083054265   -0.91381683414558   -5.11299542458574
C          -7.99266636498106   -0.83597403533780   -3.83534173872872
C          -7.64095910196816   -1.93956295887542   -2.91940339028556
O          -7.73785969963197   -3.12998670387679   -3.15853379298576
C          -7.16810270063511   -1.30904325289561   -1.68546215973595
C          -7.19477370593915    0.13110748702148   -1.86414081034427
C          -6.78331418351585    1.09186668449650   -0.98003356521136
C          -6.83996007468892    2.48019929942213   -1.23491795699693
N          -6.86303896292983    3.61765408364359   -1.38162984175819
C          -6.23204522413624    0.85225204308170    0.29815032757530
N          -5.76897952088002    0.73944303870628    1.34235180843331
C          -6.80162531503438   -1.97483553997444   -0.54152363273765
C          -6.74596667556184   -3.34786775253263   -0.26736394945330
C          -6.37561668469619   -3.82801013395252    0.99724015779633
C          -6.38330927152764   -5.20604040047111    1.06231624740602
C          -6.75340394438696   -5.79920560676773   -0.17065215452226
S          -7.10242553905234   -4.66375583919790   -1.38855807996941
C          -6.73403478681908   -7.20464066747367   -0.00080959109904
C          -6.36552905940911   -7.50187183556654    1.32611130992585
C          -6.12163777231612   -6.25628314491563    2.03507455385738
C          -5.71793353284350   -6.10942308394068    3.32841612176483
C          -5.48302586738137   -7.22095975223700    4.16632055074079
N          -5.28887304431707   -8.12837791537254    4.83902962717540
C          -5.50032277251568   -4.84118831503678    3.90915115808622
N          -5.32570041289384   -3.81184041137258    4.38159202997422
C          -6.33096352818619   -8.86922524679227    1.58496437151730
C          -6.65799523543753   -9.61048271464507    0.46127482334459
S          -7.01795801861061   -8.60687483097892   -0.93167230353964
C          -6.71341388303410  -11.02584774231759    0.37338103120029
C          -6.89871551765351  -11.80899205440229   -0.75116485748252
F          -7.06239066990144  -11.29339646346602   -1.97308635145067
C          -6.88659812834681  -13.18422219455791   -0.48929233337786
F          -7.03986910180450  -14.11606170288488   -1.43477183170540
C          -6.70637562000923  -13.49627158817895    0.84598261317572
S          -6.53588432203151  -12.03729635249498    1.77800145785324
C          -6.66110393985730  -14.77949480092611    1.44954366124528
C          -6.58223823731684  -15.05026066134010    2.80646670727180
C          -6.56722143053435  -16.41902736265560    3.05771911370977
C          -6.62488593278189  -17.19034411957771    1.88098974343031
S          -6.71306769046909  -16.23332348651666    0.47051481817584
C          -6.60533668016269  -18.55853744436714    2.23919373627944
C          -6.53769869934177  -18.65729678653002    3.64585032595216
C          -6.51641052689959  -17.31483742501016    4.20406464975123
C          -6.46722753057164  -16.96638235700171    5.52056715229286
C          -6.42058878425168  -17.93084569772213    6.55082241215896
N          -6.37647617237722  -18.71241540710701    7.38771413365763
C          -6.45767745351459  -15.61709883181834    5.93619491319540
N          -6.44975667002945  -14.52074187237948    6.26969242126890
C          -6.49851692884208  -19.97153026045615    4.08989280121639
C          -6.56753133010595  -20.88624917590287    3.04497547447407
S          -6.63168076405283  -20.07751234208093    1.47788484758071
C          -6.48042701866056  -22.28544589114744    3.19132781050029
C          -6.71612010915892  -23.28780661609778    2.29748090689917
C          -6.09181918096145  -24.61802800954050    2.53050551080974
O          -5.57005728041197  -25.01150918149561    3.54500463546294
C          -6.19423447250030  -25.32154598116221    1.22967334238690
C          -5.66249088008615  -26.54078047513232    0.86736446477934
C          -5.86772463353330  -26.98545702784236   -0.44003264017635
C          -6.59446644708032  -26.19548181458584   -1.35151103942198
C          -7.13876916830164  -24.96703628396743   -0.97104266609113
C          -6.93898875837247  -24.53515400988595    0.32818183725253
C          -7.40875653299077  -23.33903896396287    1.02943263735276
C          -8.50791512653045  -22.60321714151311    0.67380540748827
C          -9.11802827156400  -21.66975013117275    1.53797694096373
N          -9.65870036905409  -20.93772692261976    2.23702628394097
C          -9.20573904957521  -22.76897594371786   -0.54064682685751
N          -9.79000004780846  -22.85920650710361   -1.52357657628780
C          -6.77377923738579  -26.65429562011225   -2.68033493494536
N          -6.92015542410430  -27.01476665693222   -3.75668055033343
C          -5.33794690979378  -28.23215214129055   -0.85300350399568
N          -4.90064807481060  -29.24200162595830   -1.16912366364093
H          -7.80762505058531    2.54543711278847   -3.42674265767152
H          -8.69630829646641   -1.86961095510087   -5.57646311372705
H          -6.51360186386433   -1.36548533123494    0.30655292458123
H          -6.12118362834563   -3.16789865810066    1.80766134169706
H          -6.08063838365333   -9.32340068511827    2.52680195794211
H          -6.54458497899356  -14.27515612170734    3.55063611846238
H          -6.44629965839516  -20.27720397946692    5.11936350879824
H          -6.07622125670598  -22.61782157036563    4.14387058550405
H          -5.10346945532572  -27.13433704475398    1.57464705820509
H          -7.68686980435375  -24.38363602417436   -1.69420148743371
