97
 SCF done       -215.550225816302          0.000793039977
C           0.95971676251227   -3.02697383197869   -0.44923939377755
C           1.88491567459424   -1.99932188616396   -0.54621840105945
C           2.14065348226424   -1.45049584770091   -1.80341718172525
C           3.07965356086984   -0.39557380400926   -1.92483051071349
N           3.83672005139122    0.45841514542056   -2.01369548717639
C           1.48255572029664   -1.92434042627868   -2.95534682948445
C           1.75913971871906   -1.34215705369281   -4.21598273334455
N           1.96799984110574   -0.88047524862797   -5.24278150339897
C           0.56092683588552   -2.96704488240775   -2.85493809360542
C           0.31234992856674   -3.49900851847281   -1.60694068209552
C          -0.60838659810148   -4.60523364233490   -1.25505118517270
O          -1.25227165265345   -5.27164701733864   -2.02889755576790
C          -0.47073218206238   -4.77361692042629    0.21748083301216
C           0.47087652373252   -3.77680017224778    0.70581217773975
C           0.77600094715021   -3.51817157517903    2.01204970686479
C           1.67738140936289   -2.51453255426779    2.43256977160998
N           2.40155473715738   -1.71748535988695    2.82712496398250
C           0.21143713919735   -4.18632298306441    3.12290205678976
N          -0.21541147309984   -4.66050159409047    4.07606208673015
C          -1.00186351185892   -5.79636036639875    0.92829062816950
C          -2.02413198730030   -6.70713342207027    0.46868587452883
C          -1.92020033050259   -8.05410881498712    0.80982116845390
F          -0.84522096611873   -8.44315762884248    1.51508047677983
C          -2.84640858069785   -9.02717045284164    0.43331447206156
O          -2.59911503697696  -10.28143261978988    0.87453449458512
C          -3.66573330415949  -11.16765798585506    1.13370470306765
C          -3.93092780776535   -8.59900461258800   -0.34266941788778
C          -4.07513249695889   -7.24124498374829   -0.63709559929477
C          -3.17107017241149   -6.26153141388347   -0.23392542884419
O          -3.29710975253073   -4.93270611697651   -0.37472028149429
C          -4.43663433729674   -4.37034783924510   -0.99710954303418
F          -5.13551081431737   -6.90751436795408   -1.40922415113339
C          -4.92579649237914   -9.51630228213726   -0.92244526802708
C          -6.28744709618583   -9.40577310655766   -0.62590358200786
C          -7.27088828824551  -10.23060153106046   -1.27193910795840
N          -8.58722400716245  -10.04083491760684   -0.99863635432246
C          -8.91520573985256   -9.14799461572257   -0.13309833255566
C          -7.93108386914376   -8.37245138776777    0.55874751259531
N          -6.67463102931944   -8.50566106566451    0.31576524537672
F          -8.29748841201206   -7.50103368101632    1.49196044850350
F         -10.20700051148493   -8.97448113464903    0.12484332151663
C          -6.90905476491528  -11.20851750846288   -2.20362570243873
C          -5.54838622907776  -11.33258168439571   -2.49640263453594
C          -4.56107312941794  -10.47938015464264   -1.86732555728711
N          -3.32495100321684  -10.74743045022739   -2.30929046187800
S          -3.40335663688726  -11.93622646951500   -3.37132546075048
N          -4.97688463651528  -12.19814010517787   -3.34410547365244
C          -7.92891367399800  -12.02025379098492   -2.87471016223367
C          -8.01471252128600  -12.03970697032160   -4.25108055990862
F          -7.14025075524148  -11.32397019026001   -4.97111439732757
C          -9.01707919622852  -12.72512741444587   -4.95905061618390
O          -8.96895940164200  -12.53706597045587   -6.28737817680175
C          -9.99541860508123  -12.94330627540995   -7.16219612523800
C          -9.97019006335331  -13.43157519640016   -4.20789365647817
C          -9.85186374781364  -13.42486448431503   -2.80380000655855
C          -8.86377087159938  -12.74981206805106   -2.10844034885204
O          -8.65707981490385  -12.75937661040698   -0.77367811812075
C          -9.72567153116332  -13.05524194492787    0.10666856218286
F         -10.74168380346059  -14.19217795833271   -2.11973858491408
C         -11.03940326457848  -14.21584299979344   -4.79929997944352
C         -12.32449953329863  -14.31770196219183   -4.39106075344551
C         -13.15981571228811  -15.44639018831700   -4.89102198797690
O         -12.91474960336113  -16.16925279007491   -5.82545771351920
C         -14.31523737617741  -15.50433090790986   -3.96870995616618
C         -15.32367440792064  -16.44379204922039   -3.91555090873731
C         -16.29601841235612  -16.31029982984239   -2.92350784817900
C         -16.23103300312937  -15.24185624445480   -2.00766499529686
C         -15.21189901954717  -14.29091876410526   -2.07555502452187
C         -14.25230539180749  -14.42334296784810   -3.06559200497457
C         -13.10207512814360  -13.58719656684654   -3.40290655846127
C         -12.90479903770881  -12.29773709726770   -2.99824332862382
C         -11.92602090078112  -11.44891996924911   -3.55903226052882
N         -11.18962218767169  -10.71797193531837   -4.04779086532314
C         -13.70667447816231  -11.64070010479888   -2.03893604348829
N         -14.31905918249340  -11.07844876017147   -1.24941319952243
C         -17.21839554846797  -15.13278172622070   -0.99630173047081
N         -18.01002837052522  -15.03853903894091   -0.17503447938810
C         -17.34720665313224  -17.25484938078507   -2.83274314477358
N         -18.18887657381030  -18.02884870932020   -2.77514162834050
H           2.41266492077687   -1.61463006390969    0.31189314563027
H           0.05283465541674   -3.34616183595727   -3.72867113494614
H          -0.61513744666749   -6.00842889965895    1.91794126551689
H          -4.55334844451722  -10.63777627242238    1.48598577388025
H          -3.30677106270728  -11.83455866088580    1.91822369132850
H          -3.92155458393582  -11.76289010804479    0.25335844050174
H          -4.30289679577271   -3.29299642295693   -0.91076788826427
H          -5.35811304405625   -4.66367584160463   -0.48960850813144
H          -4.49203664110738   -4.64599440687622   -2.05190267908349
H         -10.98437577391767  -12.78577924970446   -6.72400843676834
H          -9.87941747723734  -13.98847247551193   -7.45972031021252
H          -9.88678602599591  -12.31269377808595   -8.04503402488253
H          -9.96467244623508  -14.12098408686142    0.11645487673469
H         -10.61829827623533  -12.47776004700698   -0.14500240276808
H          -9.37378325963727  -12.75955396894356    1.09384753052053
H         -10.76186628860141  -14.90204230599015   -5.59108576669420
H         -15.35766692811725  -17.26066301369536   -4.62037284966669
H         -15.18887679208529  -13.48852879936221   -1.35515215002537
