99
 SCF done       -206.375882187610          0.000364467910
C         -11.58404116476751    4.38187483076904   -7.79921648606111
C         -12.05987736765623    5.60193923644090   -8.25306562142162
C         -13.35753935292644    5.66145141941282   -8.76356905874213
C         -13.86541011062097    6.90058012579882   -9.22747650880670
N         -14.26995158692752    7.90564231024169   -9.59701836196665
C         -14.17276737482814    4.51454103836634   -8.82393403294543
C         -15.48392419449087    4.60682737670167   -9.34967718070231
N         -16.54740086720927    4.66221194277134   -9.77057072467654
C         -13.68978941620025    3.28933664184913   -8.36229937759424
C         -12.40836295980272    3.24434134828531   -7.85589070175532
C         -11.69028328825759    2.06466995661457   -7.30446500349612
O         -12.12146110688418    0.94040801883353   -7.27782394908067
C         -10.38272524599020    2.60155199471303   -6.82891949851806
C         -10.29755081567340    3.99970409908799   -7.21758327573985
C          -9.20540683769070    4.82104048707676   -7.12044478300787
C          -9.18949389881057    6.16733098229524   -7.54873196759472
N          -9.11162426335783    7.26469179871958   -7.87425465970316
C          -7.93182687214181    4.46609327942062   -6.62136062474663
N          -6.86185688922759    4.28137492902869   -6.24845265032317
C          -9.44238085628568    1.96112301332430   -6.07262157158929
C          -9.41349036783854    0.62384708082738   -5.61982439477642
C          -8.41828850963552    0.10201613737280   -4.74703522607597
C          -8.72843783583919   -1.25519520446468   -4.53912467436213
C          -9.90334865447692   -1.48639779355265   -5.33746225639180
N         -10.28078479799634   -0.35630071110541   -5.94870735760401
O         -10.49473359553566   -2.62711090636820   -5.50679098137214
C         -11.70091119056341   -2.64820907630281   -6.26096989638165
C          -7.71597057742416   -1.75266567188698   -3.67482629148058
N          -6.80323777166342   -0.76726895834584   -3.40902000878736
C          -7.20624175575532    0.34096418802612   -4.02540327196915
O          -6.58042587672154    1.48963983752298   -3.98414618853756
C          -5.36121029229821    1.53093872960975   -3.25933514997777
C          -7.53548328338718   -3.00412392779595   -3.07659250281482
C          -8.42841669257615   -4.08839067678453   -2.94201959309391
C          -7.84597369976454   -5.19449748902156   -2.23155693286477
N          -8.48595839520588   -6.35534991224652   -2.13664785635947
C          -9.71145352606059   -6.40958517847809   -2.61665074970926
C         -10.39735692517202   -7.72767439909191   -2.59334706610041
O          -9.86002178669958   -8.74683192472431   -2.21596798993644
C         -11.79078535606517   -7.71312640967865   -3.07329007545256
C         -12.41978490767431   -6.60853789477792   -3.48585838645196
C         -11.79698742816285   -5.27343353620167   -3.50170284739189
O         -12.42869462708759   -4.27482079517641   -3.77717758658395
C         -10.35652198333205   -5.24993348012916   -3.14183249759675
N          -9.69940548174672   -4.12283910191464   -3.32923583873054
C          -6.54088412839157   -4.91708932469574   -1.77429559462277
S          -6.03331007073694   -3.34354004916473   -2.28457381028612
C          -5.65313944261790   -5.72884301329870   -1.05869277200628
C          -5.85956309483416   -6.92541068748305   -0.33120709025469
C          -4.58524015374817   -7.32813982251231    0.12065520540519
C          -3.67739540475561   -6.31977140031087   -0.34507351369329
N          -4.32628920541865   -5.38003174510967   -1.02021395835622
O          -2.38537594973721   -6.31729743412193   -0.12708256397560
C          -1.65841301026809   -5.22398565925395   -0.66741465631458
C          -4.76877442096343   -8.52883318097229    0.84181362727602
N          -6.09651672424656   -8.83902054056398    0.88254169146492
C          -6.76726539475478   -7.89815345304065    0.21072343991696
O          -8.06320652661014   -7.83326301024903    0.13140319765377
C          -8.82921690066185   -8.91074953852904    0.64565223824124
C          -3.76845992934527   -9.27305706618229    1.50625271160912
C          -3.91679651926350  -10.46737406221259    2.14530537695901
C          -2.92684658894064  -10.90212107505795    3.16626423742737
O          -1.81476171150309  -10.46745311939205    3.34410227601391
C          -3.63261721432626  -11.93810582613899    3.95874037633976
C          -3.20450172164642  -12.58522021158453    5.09868839388177
C          -4.06513793020819  -13.50824651480823    5.69526978274634
C          -5.33339583110955  -13.75799915168324    5.13537247663540
C          -5.75316160857157  -13.10629938336141    3.97433573732312
C          -4.89484333237878  -12.19423828043513    3.38415216248517
C          -5.02741371280422  -11.39566395342246    2.16599066834093
C          -5.89640026475848  -11.63536997001759    1.13949778961611
C          -6.96775300436269  -12.54837588131045    1.21605711387264
N          -7.87336303993553  -13.25227764606060    1.25396752725454
C          -5.74469370122873  -11.08096039515804   -0.15410962872372
N          -5.59241457112610  -10.79292633875962   -1.25422991210264
C          -6.19973260551718  -14.68584793033854    5.76531437825655
N          -6.90653386336421  -15.43013154702951    6.27230841146703
C          -3.66530171886065  -14.19031393150848    6.86961480561897
N          -3.32465391750199  -14.73158439418780    7.81949139079832
H         -11.46848365146271    6.50284738688561   -8.22067705096751
H         -14.30134354868779    2.40049854921981   -8.39746142434986
H          -8.59239865111083    2.53815774956060   -5.72886013340598
H         -12.47822684491072   -3.02894749242014   -5.59439989725469
H         -11.56355264462113   -3.34004170829481   -7.09309492981358
H         -11.94378873924315   -1.64855575084433   -6.62179047020085
H          -4.95710723412722    2.52885155939677   -3.41261045098167
H          -4.67193253708641    0.77148965365725   -3.63189915437132
H          -5.54564517111883    1.34659326629609   -2.19918891059948
H         -12.28668456030097   -8.67446273937159   -3.06604414618813
H         -13.44860250236119   -6.63784532139890   -3.81896536127855
H          -1.72186998785733   -5.23111905894132   -1.75707211533343
H          -0.62879108337580   -5.35522630820809   -0.34261984903457
H          -2.06435925124776   -4.27972818788083   -0.30039972431518
H          -9.15234388557026   -9.52639851925141   -0.19751892373748
H          -9.70158720563078   -8.47904976321498    1.13587743615740
H          -8.24366552075779   -9.50298342026053    1.34805288029121
H          -2.80085438479573   -8.79189767378779    1.59584291003002
H          -2.23131590294895  -12.38168304924146    5.51913209099274
H          -6.73125369492906  -13.31850139085791    3.57174736878616
