131
 SCF done       -257.995277994901          0.000473660074
C         -14.51101020534455   -1.24630240010111    3.57027941070188
C         -15.07104569132718   -0.26433347050484    4.37234715833176
C         -16.36497263995874   -0.45997005883736    4.85737689612502
C         -16.95591027839589    0.53129102635395    5.68021055962964
N         -17.42612221387566    1.33542504667138    6.34550047320456
C         -17.09481721676489   -1.62422923890990    4.54723012389949
C         -18.40785827649606   -1.78980612816755    5.05020118546072
N         -19.47070461546191   -1.94172284148745    5.44826540495386
C         -16.52375379759649   -2.61402903406856    3.74676668879280
C         -15.24551208450022   -2.40806140655308    3.27239422570314
C         -14.44084918704871   -3.31079956421024    2.41466178215181
O         -14.78601587301394   -4.40058669136239    2.02511467764602
C         -13.13647612187132   -2.61952728893416    2.23316771987071
C         -13.20804502104670   -1.33418107288536    2.91397530056010
C         -12.26714832642974   -0.34077723836776    2.89383486835598
C         -12.40880000858673    0.89868126130622    3.55664754267857
N         -12.46321028619178    1.91942092468407    4.07734014103232
C         -11.03643575580759   -0.38834332122740    2.20171625397037
N         -10.02492139259385   -0.33668488447034    1.66134404318089
C         -12.00017323290661   -3.15054601259091    1.70281663722921
C         -11.81931691421629   -4.34770538603878    0.93296376221899
C         -12.80164617206415   -4.87850145545015    0.08471827387580
C         -12.58195337472851   -6.02419719174276   -0.65554505531623
C         -11.36221599254689   -6.68467228595090   -0.55362376722528
C         -10.34760124352346   -6.10367711704230    0.24906522716472
C         -10.55014011363982   -4.95792841364664    0.97585721868744
N          -9.19213023894698   -6.84612943352650    0.13662974895071
C          -7.95299048648426   -6.56805606845999    0.80988100777614
C          -9.35858466642416   -7.88505829021010   -0.74186959312622
O          -8.48461704118512   -8.68511330234858   -0.99686800118098
C         -10.78942001993721   -7.84348985245419   -1.20227062791216
C         -11.37725396135592   -8.79143053278100   -1.99364758201864
C         -12.86541825398044   -9.02417870291539   -2.08103190189604
O         -13.77161022697328   -8.43030694591755   -1.54007063605382
N         -13.04900638246781  -10.13433556586542   -2.86013083841066
C         -14.34189391665894  -10.67250590645163   -3.18571991945733
C         -11.84494423537831  -10.60650834193093   -3.33599456812384
C         -10.78815597228650   -9.81749670662891   -2.82137085882591
C          -9.49294346362656  -10.09783004854528   -3.24729353898498
C          -9.27651108066569  -11.14804911902689   -4.11732403943368
C         -10.32501249659311  -11.94624250318380   -4.59321861454381
C         -11.63652433389889  -11.66472510178695   -4.18729187171568
C         -10.05525359930123  -13.04155902523592   -5.51220963580565
C         -10.94579018319791  -13.39951706952938   -6.54416926899212
C         -10.68823133618396  -14.50839228662748   -7.43844816059837
N         -11.62392890151524  -14.85272892735734   -8.34261698634643
C         -12.71262486486499  -14.14226258788963   -8.46103917699188
C         -12.91000295237500  -12.96927118196395   -7.65487932473057
N         -12.04744317334292  -12.64867709791597   -6.72893371350481
C         -14.05437962491614  -12.15289211387220   -7.83541310880100
N         -14.99605927805465  -11.51824060453223   -7.98553894089713
C         -13.68298974039350  -14.53319835167832   -9.41724132531483
N         -14.47027139677708  -14.81941147764114  -10.19854768718287
C          -9.51051794663428  -15.27870834996653   -7.36184548014644
C          -8.61533237505003  -14.90863112334463   -6.34375585075535
C          -8.87836990184055  -13.80557239748302   -5.44158367974802
N          -7.88435925247505  -13.65150917072439   -4.55798363843684
S          -6.75081866528518  -14.74011093589236   -4.84184457511797
N          -7.43350657389984  -15.48045578203549   -6.08114250515353
C          -9.24776959580366  -16.39950115178456   -8.25209575017380
C          -8.56840559712964  -17.52904616051919   -7.77656256925089
C          -8.30499678228072  -18.61850093644467   -8.58267141961389
C          -8.72184744412494  -18.60254183437705   -9.91040227329549
C          -9.44228735146114  -17.47473517354996  -10.37141652711542
C          -9.69016187254604  -16.37767040741530   -9.58203264102954
N          -9.83390637106943  -17.67950735098969  -11.67768796655516
C         -10.60450964487498  -16.75874787138250  -12.46870738918191
C          -9.45473284481156  -18.91980872301694  -12.11317964768299
O          -9.66714057748110  -19.33037771504602  -13.23343431688994
C          -8.68332258018850  -19.56214341438434  -10.98770133709011
C          -8.03485809015933  -20.76262946191691  -11.07918358600516
C          -6.89658380971576  -21.18251273376415  -10.19321571644274
O          -6.38686308978857  -20.60580565770152   -9.25797837335558
N          -6.42334725141190  -22.37139440067127  -10.69060534000021
C          -5.33297285126081  -23.09705245709041  -10.09946655452229
C          -7.18321038204258  -22.79608868311168  -11.75646363604776
C          -8.18178660871352  -21.83131041256262  -12.04098652990059
C          -9.10043981047415  -22.10337070389573  -13.04857219785978
C          -8.98494197157188  -23.27633815362998  -13.76786505417313
C          -7.99117228182392  -24.22471090056094  -13.48692931230749
C          -7.06464893744603  -23.96754483167850  -12.46292685081771
C          -7.92903325608748  -25.42111889761410  -14.27822954316965
C          -7.42528792562461  -26.64031580890415  -13.96008711879816
C          -7.10975278651821  -27.60436044443604  -15.05082107346538
O          -7.45723149509478  -27.54088462569235  -16.20428656318999
C          -6.23037014146828  -28.62004109476339  -14.42410519540868
C          -5.55309006887093  -29.65936026947922  -15.02604277629273
C          -4.74620376681424  -30.47021564683444  -14.22604784216265
C          -4.63526564303238  -30.21636445033756  -12.84518691891181
C          -5.33428444327554  -29.16841899455432  -12.24360951441722
C          -6.13846769846570  -28.37105589206941  -13.04021678532294
C          -7.00048782133742  -27.23609789845392  -12.70749235837325
C          -7.49756036231080  -26.96612873084339  -11.46205716666934
C          -8.53056504189051  -26.03684392237436  -11.20818095782457
N          -9.40337097089899  -25.34240351741848  -10.94105337043915
C          -7.08440353623824  -27.63309243169294  -10.28926763706208
N          -6.75255818679101  -28.12269528197364   -9.30615289361237
C          -3.79335574697722  -31.03541183794713  -12.05200982956385
N          -3.11243393983345  -31.68728318218626  -11.40261148596398
C          -4.02988134570907  -31.54593653217645  -14.80465209238811
N          -3.45541034608611  -32.40933159762930  -15.28989012038281
H         -14.54316480920190    0.63804052575794    4.63624301643949
H         -17.06519523374285   -3.51523903562226    3.50189616021946
H         -11.07640788565877   -2.62087330240906    1.90763606373740
H         -13.74513523221278   -4.37096528331046   -0.01643196400076
H         -13.36491001061651   -6.40599698028294   -1.28632632654503
H          -9.76652681263761   -4.53657051439251    1.58659729447556
H          -7.57158331750038   -5.58562883917287    0.52441751658773
H          -7.23999912612163   -7.33536602237180    0.51059072958495
H          -8.08978191109445   -6.60267858070579    1.89222686968965
H         -15.08831452063322  -10.05433079930817   -2.68849367392406
H         -14.42898418858436  -11.70062307883151   -2.82964558247764
H         -14.50713378338071  -10.64772528744392   -4.26478597766381
H          -8.65966002264732   -9.51494278877265   -2.89675665692981
H          -8.27293751220484  -11.35368523538204   -4.45083402333138
H         -12.46006742077714  -12.26939553765871   -4.52610996650986
H          -8.25365688465279  -17.55233499154701   -6.74652745991940
H          -7.77219033966643  -19.46267858462441   -8.18219148153386
H         -10.20495138600409  -15.51899945314405   -9.97716534004607
H         -11.55247994192288  -16.53145023776598  -11.97702141901925
H         -10.79720662057406  -17.23383409814329  -13.42973668080328
H         -10.04874497642233  -15.83294383942867  -12.62856933317855
H          -4.94792490088147  -22.49397636099898   -9.27797241835450
H          -4.53961077255698  -23.26065613243999  -10.83115839496748
H          -5.67466172184722  -24.05957991215326   -9.71136552698946
H          -9.87923333178857  -21.40136998161620  -13.28878864550493
H          -9.69699736389190  -23.48898711157175  -14.55031607514524
H          -6.26025264640550  -24.65782675495939  -12.26099008092211
H          -8.28386613915622  -25.33190670370004  -15.30083832769204
H          -5.64318637800781  -29.83890299536424  -16.08658618490671
H          -5.22323195966927  -28.99927273966767  -11.18400173778790
