97
 SCF done       -199.971729131480          0.000584889721
C          -4.35456412893765    0.71358340441327    0.55097038701001
C          -4.48900552143797    2.09126658581757    0.49512773375194
C          -5.43780796321758    2.70030799291890    1.31811052032645
C          -5.60002311892572    4.10738222465698    1.26880368246715
N          -5.72460762124400    5.24437530564306    1.22299355272539
C          -6.23861495689803    1.94257787214849    2.19453052110437
C          -7.19279907553322    2.59030524101217    3.01575297113644
N          -7.96887937938923    3.09737219119047    3.68789825630343
C          -6.09387975424759    0.55552971635883    2.25358102343412
C          -5.16357352237926   -0.03643981858154    1.42688695166574
C          -4.82892533502325   -1.47336285959774    1.29676913631767
O          -5.14363641914449   -2.36597815010049    2.04778821724280
C          -3.87343273023430   -1.54603019560627    0.16018993146186
C          -3.47895531588153   -0.19646700078379   -0.18947929024285
C          -2.48450840679985    0.17579068470944   -1.05336237486233
C          -2.15239194028657    1.51415573149187   -1.35629282694880
N          -1.83717507955374    2.58073823616411   -1.63678831366581
C          -1.63487135162468   -0.72988956858736   -1.72389244564644
N          -0.91249231947935   -1.42441021221127   -2.28387009537568
C          -3.44839082958996   -2.72109522884358   -0.38211174336488
C          -4.13858125375300   -3.94279877738298   -0.18090241336035
C          -3.69678372457619   -5.23432472558154   -0.18639730716605
C          -4.82738471926581   -6.13153767065884    0.03217630430940
N          -5.95699759999122   -5.37924382035546    0.09998119142525
C          -5.63347895583748   -4.03251280240359   -0.05953856605758
O          -6.44670098850894   -3.15308386913270   -0.19108017357699
C          -7.30991028910977   -5.84992883837241    0.21840289195944
C          -4.37989162291088   -7.41317136799877    0.02023748194046
C          -2.89627745277283   -7.33117429409633   -0.15222737049017
O          -2.07416822787941   -8.20700655172905   -0.12632183045240
N          -2.56753839177827   -5.96552639116792   -0.27858478008133
C          -1.22568136489546   -5.48601321588065   -0.47219801953134
C          -5.03814012643738   -8.68792690781227    0.16844932456799
C          -4.71310287172535   -9.74241591057162   -0.70878275581604
C          -5.23238239552635  -11.06925931141967   -0.53161958548503
N          -4.89347724475260  -12.04548534127004   -1.40868625076194
C          -4.11528088652270  -11.73595070335763   -2.40503946133994
C          -3.65085047854893  -10.41496567482221   -2.60757255620857
N          -3.94790106820616   -9.45368632667691   -1.78611422227844
C          -6.13869662407830  -11.36356276387748    0.50418093179137
C          -6.48412673198516  -10.30771997518981    1.35998735386023
C          -5.94496361848519   -8.97703036983959    1.19544152966446
N          -6.37926620099086   -8.14950162857307    2.15682231182512
S          -7.34046528922462   -8.96636108101291    3.14660688183336
N          -7.27035335160733  -10.39231777859452    2.43920281503073
C          -6.80494489051103  -12.63518666807308    0.64855081079116
C          -6.39117700518771  -13.92898820335445    0.63788199288051
C          -7.55185136558417  -14.79729437026750    0.82800612586864
N          -8.66763672459340  -14.03465721031760    0.87700852677941
C          -8.28794576347975  -12.67526433325544    0.76577852883667
O          -9.08689934991093  -11.77906334466172    0.71354143734784
C         -10.04006108410476  -14.44832094265393    0.76073257167481
C          -7.13966161305808  -16.09943511761803    0.84696534008499
C          -5.65742898028658  -16.05363031903104    0.60256856940518
O          -4.89735724273355  -16.97904674488615    0.49072932517446
N          -5.28667478991852  -14.71150709854429    0.54984458667484
C          -3.91447691019453  -14.28513478075636    0.52540256227075
C          -7.80665156199146  -17.32410812003130    1.07893223262659
C          -8.86088619539617  -17.58069771526656    1.90294302901998
C          -9.62150654140514  -18.84879849247505    1.73725440123565
O          -9.33593509847844  -19.78321188870768    1.02960333345047
C         -10.82965774408531  -18.68970057014648    2.58074453230629
C         -11.91076209648775  -19.53676031311619    2.69900104564395
C         -12.95744797177956  -19.15454882754471    3.53997622560866
C         -12.89568832689469  -17.93069277819528    4.23304821291469
C         -11.79098395655139  -17.08498660513357    4.11288865254015
C         -10.75013858653937  -17.47382931549614    3.28707867924279
C          -9.46913904626754  -16.82790533458301    2.97901917074297
C          -8.88402324110437  -15.86050950006225    3.75640170348825
C          -7.56787412162491  -15.38298890975864    3.60912457611135
N          -6.50149067144291  -14.96017123505186    3.56342346267043
C          -9.51954664768875  -15.25128779439515    4.86064226435894
N          -9.99858313815652  -14.71346892242780    5.75342549043258
C         -13.97710696681819  -17.54603986021391    5.06469442280567
N         -14.84722674513062  -17.22482749129787    5.73539115405627
C         -14.08798247395255  -19.99411043862269    3.68941583148341
N         -14.99436628188024  -20.68517781636675    3.79697531097444
H          -3.89357056600670    2.70406893472423   -0.16299330251905
H          -6.70002333992560   -0.03955700460003    2.91933726467618
H          -2.58381861869535   -2.74386176456289   -1.03161070434170
H          -7.42640063254117   -6.39683591558595    1.15436681883408
H          -7.56243698085142   -6.50535472995336   -0.61739323029046
H          -7.96109408102146   -4.97707866801262    0.21068464992036
H          -0.55394727660644   -6.33412547796253   -0.34432868872368
H          -0.99014840095555   -4.71464962738487    0.26222493697834
H          -1.09915795344864   -5.07613496267303   -1.47603144209422
H          -3.85593550822315  -12.53602929858842   -3.08547550796706
H          -3.04842595127924  -10.15548722490351   -3.46683822978458
H         -10.16778695689573  -15.10930825194739   -0.09870687445195
H         -10.63376571231024  -13.54471542629828    0.62064100471843
H         -10.38439581795349  -14.96355663389744    1.65801197303137
H          -3.29795010507801  -15.17154492225285    0.38390304230853
H          -3.65225113312316  -13.80372250703334    1.46919220543249
H          -3.76391838960559  -13.58431634093073   -0.29481462499858
H          -7.42127304916364  -18.17929007764974    0.53011235451231
H         -11.94605901280340  -20.46865304378153    2.15551381109173
H         -11.78193113175707  -16.15274204903066    4.65526091128103
