125
 SCF done       -231.115031680236          0.000482863077
C           2.96574059678267    1.46828105411166   -3.09222633433446
C           1.88601084900320    0.58744696356762   -3.70433826597103
C           1.40169966176817   -0.55767362628240   -3.09094951085765
C           0.38327480601832   -1.28346693412115   -3.68718048920183
C          -0.16747455796317   -0.86292284739619   -4.88387767419092
C           0.29706847367447    0.29564651911378   -5.48513569405634
C           1.31733179031078    1.01936285204082   -4.89829207005383
C           4.18122475871159    1.64035509329967   -3.99507835224109
C           4.42006884401652    0.80435090744513   -5.07724758260926
C           5.54848572502753    0.98758290857465   -5.85712882062696
C           6.44149382782772    2.00435067952230   -5.56736082717352
C           6.20597454214384    2.83922478577379   -4.48854001376580
C           5.08344998451388    2.65549433064396   -3.70213394345621
C           3.39370909692550    1.05006598811884   -1.70214297580906
C           2.96506123865237    2.02680235143159   -0.82594745453913
C           2.31766711834501    3.05906905369989   -1.59520162478086
C           1.74017738462996    4.21890124749807   -1.14853806036314
C           1.68338426045746    4.57558798875847    0.21007124523761
N           1.61052994212131    4.91324689875940    1.30415372862343
C           1.16232754660016    5.12577783819035   -2.05928801010977
N           0.69417941372853    5.86618475342853   -2.79952897458260
O           2.35292461802550    2.75744416887054   -2.89868402843147
C           3.14312280638188    2.06048716919598    0.56241847662349
N           3.31320933209642    2.04569966325248    1.69766847673292
C           4.12161295727525   -0.11962345687301   -1.41604739146736
C           4.43956636518431   -0.62634412228073   -0.15397221126683
C           5.15687235444164   -1.80154721025210   -0.22430897323787
C           5.41008670287463   -2.21078860025502   -1.54288577935640
S           4.74615349497205   -1.14550222905790   -2.70510136183142
C           6.15998659864537   -3.40204676986897   -1.52312957061164
C           6.38015758777031   -3.77086795790717   -0.18711746281884
C           5.75439700641628   -2.77622671422642    0.76171651773409
C           4.67049989957038   -3.42939047406067    1.62384076991585
C           6.81009462699651   -2.10092468248507    1.64129206342879
C           7.11266353628145   -4.93401037178613   -0.07178341791151
C           7.47156796965614   -5.46186055143045   -1.31269580848756
S           6.87951933416198   -4.48845335977744   -2.64188605111391
C           8.23564664769478   -6.63330582508546   -1.54876470641078
C           8.61174282933615   -7.02531149286622   -2.85366693064319
C           9.41935917606640   -8.18069119053918   -3.11175723265693
N           9.75189559662630   -8.47957154380233   -4.38239754808939
C           9.33799025036888   -7.72793753532042   -5.35071382100066
C           8.53495249113869   -6.58729448584362   -5.09570697130237
N           8.19856283623943   -6.26772860062894   -3.88794375605852
F           8.10456868880739   -5.81417040456045   -6.08825179942855
F           9.68752466383144   -8.05889915904387   -6.59025567552423
C           9.88601468641718   -9.03103976921767   -2.08364063639089
C           9.48794307174572   -8.66388867838005   -0.77397649592532
C           8.68795078590452   -7.48689468326514   -0.51176172473810
N           8.44893759699052   -7.33986679079000    0.79156122659027
S           9.14397701278469   -8.53742646191269    1.60178451078045
N           9.78895309389859   -9.31021693293972    0.35252300712249
C          10.70393817281138  -10.15648316531971   -2.36012432733305
C          11.17694496139309  -11.09334272920011   -1.44041833993137
C          11.97310418970988  -12.05332448612144   -2.03003124197492
C          12.12477163790243  -11.85444920798911   -3.41092484285340
S          11.25804444142627  -10.48842082874246   -3.98713259901074
C          12.96739743971798  -12.86036886063074   -3.92032724543713
C          13.35218664110428  -13.71498721215882   -2.87531811861252
C          12.74007207844559  -13.27013265627495   -1.56880062012250
C          11.80304033512249  -14.34013079110788   -1.00140660668478
C          13.81816482972203  -12.89997043742906   -0.54658424810262
C          14.18912578852703  -14.72885329834972   -3.29000855792316
C          14.46716796018453  -14.66529513271273   -4.65741992112482
S          13.64676785400843  -13.30807148690876   -5.42467877182108
C          15.30325925937023  -15.52302667321958   -5.39522835661380
C          15.94722258023008  -16.66727675379621   -4.96866856861384
C          16.65015226034568  -17.22683436307554   -6.09526535915560
C          17.42818054236882  -18.35423858911213   -6.13836335875286
C          17.67162031634572  -19.16432022732685   -5.01544247422094
N          17.90322711118669  -19.86160110255478   -4.13428967014603
C          18.03453140926504  -18.75948795754016   -7.34414842427679
N          18.52735977081591  -19.09473533302888   -8.32403468946779
O          16.44160164105998  -16.48338508888213   -7.18841848213634
C          15.63165393144574  -15.33793597576665   -6.86132714027095
C          16.49840707205171  -14.12487236208336   -7.16382908653644
C          16.93146379369257  -13.96027699852021   -8.47542678052800
C          17.76805005405052  -12.91117821524656   -8.80550146992948
C          18.18477261416757  -12.02109532909700   -7.82905952721679
C          17.77368492101677  -12.19603782014322   -6.52031715248867
C          16.94022324855495  -13.24987838782021   -6.18302097959995
C          14.35530704496382  -15.39186341917447   -7.69271719435706
C          13.66581657773469  -16.59570334634564   -7.76784013154142
C          12.49462969480389  -16.68476959042205   -8.49767793691079
C          11.99659536685819  -15.56943839630922   -9.14894260501092
C          12.67689623769553  -14.36688470273728   -9.06946056817501
C          13.85344889189515  -14.27494845255808   -8.34656755919264
C          15.92464755456789  -17.22811360247660   -3.68603693841107
N          15.87897009463299  -17.65178884902445   -2.62000671412629
H           1.80354589854822   -0.89353874341412   -2.14651008677761
H           0.01649068994289   -2.17683437394128   -3.20432315571002
H          -0.96346734875142   -1.43007020012969   -5.34226118861944
H          -0.13783309112841    0.63914791677390   -6.41132868240612
H           1.67683086242360    1.92924822182845   -5.35450675628180
H           3.72966777889100    0.00848894535737   -5.31163737465468
H           5.72582403007553    0.33156435549704   -6.69576445035746
H           7.31851216451937    2.14659145481281   -6.18047082309419
H           6.89667494359501    3.63528151365112   -4.25504258308287
H           4.90723649715001    3.31259864969761   -2.86219742587613
H           4.13913847315355   -0.14056134913059    0.75548639099077
H           3.92222594237789   -3.90660617425161    0.99513459286614
H           4.18294501162851   -2.67862457010253    2.24022972680374
H           5.11442770151320   -4.18223830712168    2.26979731476324
H           7.57874697515685   -1.64044730903568    1.02489544430490
H           7.27743062701040   -2.83615235688303    2.29102706255890
H           6.34697711242363   -1.33173230738847    2.25377387406182
H           7.39926416012805   -5.40996006016339    0.84687442740854
H          10.92658250649057  -11.03525866494687   -0.39804083873596
H          11.03961302234155  -14.60099636474505   -1.73074898945696
H          11.31595248876104  -13.96861242413787   -0.10368129514129
H          12.36809715547383  -15.23454169671484   -0.75238391172082
H          14.48203191367017  -12.14063022811079   -0.95350173946638
H          14.40558827824568  -13.77802137819278   -0.29115721839937
H          13.35499067893385  -12.51051831647540    0.35612767547545
H          14.60196596688512  -15.48732096088537   -2.65157730691977
H          16.61383214433599  -14.66520265015324   -9.22869306434376
H          18.09819271248110  -12.79138890396377   -9.82611866185537
H          18.83716010909199  -11.20036706879491   -8.08630471097759
H          18.10770739720804  -11.51695310587650   -5.75025047996249
H          16.64809644982398  -13.38057877117240   -5.15142901082668
H          14.04685255127749  -17.47228318353123   -7.26331358647800
H          11.97166940933603  -17.62740665386664   -8.55428183148655
H          11.08130426953223  -15.63816277505181   -9.71708726959469
H          12.29471468977444  -13.49229469225115   -9.57359266083676
H          14.37728158549581  -13.33270539006380   -8.29330878831745
