121
 SCF done       -241.309754151696          0.000719441152
C           1.32284982209194    0.56107488144600   -2.45151082219139
C           2.20206222287149    1.70501220904039   -2.93649049878913
C           3.34671389920130    1.52172506954888   -3.69662719843464
C           4.07274166934903    2.62006483116711   -4.12847508188322
C           3.65450409166760    3.90145119659132   -3.81942768792282
C           2.49827684295714    4.08733206893238   -3.07924479136719
C           1.77373017356187    2.99557416449664   -2.64079783285836
C           1.22980740458539    0.48455768579716   -0.93050491201334
C           0.26178552149678   -0.33960840676235   -0.37010644194488
C           0.15079176382800   -0.45081101318398    1.00391813641723
C           1.01424262627575    0.24970627697836    1.82877069088892
C           1.98218666554706    1.06873661446258    1.27419000640089
C           2.08898913653500    1.19201119757538   -0.10024843217816
C           1.67081646298986   -0.79557603764841   -3.03222468437245
C           0.63449062370951   -1.17655881948612   -3.85294816078438
C          -0.37375893411545   -0.14595801368978   -3.80303062372105
C          -1.57548890378290   -0.10095802966278   -4.45849131567448
C          -2.01147335459339   -1.11350539578059   -5.33228551365268
N          -2.41253959693921   -1.91157794337045   -6.05173228192274
C          -2.44783061882428    0.99167926790121   -4.27658033125127
N          -3.16098426444623    1.87760627850247   -4.13137079730554
O           0.00705565806702    0.83076814747159   -2.97293993464174
C           0.53942669656746   -2.36716247282341   -4.58744552221934
N           0.50383785969606   -3.35720560995723   -5.16573021081786
C           2.84432324510519   -1.50767064153382   -2.70663298066088
C           3.80777960079777   -1.13514142749249   -1.77396949346531
C           4.83647387334235   -2.05920229342559   -1.69096340760405
C           4.67389003128999   -3.14867634234078   -2.57760955803293
S           3.24068506466385   -3.03855108154692   -3.49219708200085
C           5.77834091192715   -4.01859085057110   -2.43289765219414
C           6.63710363759836   -3.48242885928016   -1.44603718837246
C           6.07051666335689   -2.24118886637625   -0.94595997443479
C           6.57821595317759   -1.42195038197792    0.01935423458846
C           7.79119196925197   -1.70442681409857    0.68306122847996
N           8.77618460415906   -1.92958284738520    1.22476167573176
C           5.91587832396251   -0.24079710127437    0.41562002215380
N           5.37319792926838    0.71832618532895    0.73292292170158
C           7.76293066834482   -4.26176249584993   -1.23278154897439
C           7.77755750646903   -5.38658716031937   -2.05256219644963
S           6.37103960150081   -5.47932905661932   -3.09902494817027
C           8.78411579185551   -6.38283896214019   -2.09751480962029
C           8.69840398718129   -7.46823132734779   -3.00225606881683
C           9.69410221960104   -8.50593254029990   -3.09724891598819
N           9.52086542140383   -9.49255103532981   -3.98879301275203
C           8.46185205666821   -9.50253241781525   -4.75928393533509
C           7.47506016292066   -8.46808062298036   -4.66791741419531
N           7.62498932104004   -7.49817947255355   -3.80090177328548
C           6.33401738476369   -8.47616753460290   -5.50871274864437
N           5.42312416516155   -8.50083112103144   -6.20179112862103
C           8.28686887523285  -10.55093791356489   -5.70026087323629
N           8.09547156506045  -11.37017827154598   -6.47604731781009
C          10.84491532589819   -8.49506828368493   -2.26652837725107
C          10.92671048390879   -7.40994657260209   -1.36412174192193
C           9.92958010342554   -6.37363282205520   -1.27141359819441
N          10.24902514278668   -5.47217049915924   -0.34147621640389
S          11.63945020744874   -5.87261135482979    0.34212351778391
N          11.92184768258095   -7.21201057632388   -0.49851335554357
C          11.87017675632040   -9.47691827696758   -2.29796455778281
C          11.96372862437493  -10.60651471073813   -3.10578306910853
C          13.11459613887525  -11.33662918801028   -2.85109527789706
C          13.91471632884625  -10.76255954317530   -1.83876221607777
S          13.24180381255809   -9.32526137337061   -1.20631932686006
C          15.05069331460711  -11.57857202755888   -1.65581790210592
C          14.97757235916661  -12.67426483356125   -2.54582263652763
C          13.76141009154333  -12.54780050204127   -3.33467842698261
C          13.32406339569305  -13.36881330581383   -4.32971354249315
C          14.04715021519173  -14.50585565347783   -4.75390676331328
N          14.63199194714083  -15.42168742769402   -5.11665205882488
C          12.11703808609937  -13.11938527478221   -5.02053224973510
N          11.13661113354700  -12.91404920746218   -5.57690603823045
C          16.05108899133047  -13.54486117919578   -2.42089069551443
C          16.95663621560709  -13.12322338558444   -1.45183144599714
S          16.45126674161453  -11.61538544501214   -0.68896960281597
C          18.15627483216463  -13.75504062782613   -1.06016497609175
C          18.65208204780631  -14.97602694017056   -1.45825360053076
C          19.94482112740887  -15.15192161411603   -0.84091759228496
C          20.80171799150244  -16.21501804940585   -0.94519859295669
C          20.52285407187346  -17.36298211380351   -1.70923582937074
N          20.35091014434537  -18.32001617230235   -2.31720128089767
C          22.04133913591498  -16.19798106903800   -0.27300169146421
N          23.05069677946702  -16.18152760123922    0.27059301275531
O          20.25636770630641  -14.07794313791180   -0.10477485233739
C          19.17852117426257  -13.12524046974865   -0.13648602804466
C          18.72954263945665  -12.96871404409149    1.30732884631812
C          19.62414479807192  -12.39958440668144    2.20719248678790
C          19.29110803002087  -12.29273543723069    3.54424030053300
C          18.06763926424298  -12.76054440853948    3.99559840149958
C          17.18859493007346  -13.35356906505253    3.10760750838103
C          17.52016520355351  -13.46890195044923    1.76770537205965
C          19.68181172838878  -11.83154742973772   -0.76871870619686
C          20.46170184127739  -11.91486854415045   -1.91562100751860
C          20.91307277940850  -10.76557342594105   -2.53837534579301
C          20.57860859760592   -9.52300897192603   -2.02817022304119
C          19.79549945066073   -9.43640288392372   -0.89040322363066
C          19.34756171987225  -10.58415004529197   -0.25946311851452
C          18.03257346421161  -15.92083002176378   -2.28962856351974
N          17.49137381863920  -16.67939337323438   -2.95793808906314
H           3.68348961549424    0.53143086951414   -3.96329612401220
H           4.96517499165460    2.46680395434149   -4.71649640802084
H           4.22270024513382    4.75313272850775   -4.16121981082692
H           2.15776402180229    5.08396668989035   -2.84391296386128
H           0.86684373469563    3.13222477470978   -2.07161720974317
H          -0.41617586042792   -0.89166656275726   -1.00588977854571
H          -0.61043719099552   -1.08837584362005    1.42738489875295
H           0.93030495444699    0.15894146223071    2.90108854926181
H           2.66338729705889    1.61630457909801    1.90640228574879
H           2.84338721899764    1.84310178565120   -0.51621847599072
H           3.74012428047918   -0.23543995964089   -1.19237534830918
H           8.55168174867933   -4.05622962794139   -0.53258655247516
H          11.21174647748827  -10.85408360467571   -3.83147156564878
H          16.18850659950443  -14.44106010179210   -2.99839677777390
H          20.58264998061182  -12.05197892515723    1.85281816657762
H          19.99115072999088  -11.84862590407917    4.23530655447393
H          17.80682317543874  -12.67574939758240    5.03958922483911
H          16.24266394477118  -13.74046694964863    3.45537854086924
H          16.83229907781737  -13.95982326384464    1.09435754853480
H          20.72930727348881  -12.87944526392240   -2.32254335952075
H          21.52437856614289  -10.84431944619619   -3.42431393138845
H          20.92895361668779   -8.62571462804732   -2.51514826352574
H          19.53181611129720   -8.47135393364647   -0.48480176488388
H          18.74460901100270  -10.50380707881594    0.63244312880849
