98
 SCF done       -205.466208141560          0.000785118101
C          -1.85885006447696    2.45167505775781   -2.91960643800967
C          -3.17463860850392    2.86822387853382   -3.07433062323922
C          -4.03208219667486    2.98101919402122   -1.98863953312672
C          -3.58782058758263    2.69490199737987   -0.70533944016098
C          -2.27766148672391    2.28664233118113   -0.54436145751270
C          -1.40994724114131    2.14957722532186   -1.64436659505992
C          -0.11792419781325    1.65427954096456   -1.17041905759830
C           0.79825861952132    0.99634254401271   -1.94725480930661
C           0.67438560243250    0.83369672584630   -3.34425011648724
N           0.62219393801541    0.66320298637479   -4.47735200475776
C           1.92003187544445    0.31210732706184   -1.43972061599753
N           2.82954143340731   -0.28372280348933   -1.07079743204997
C          -0.13823119518434    1.73351185222117    0.27604592851505
C          -1.55506584550143    1.95299047782032    0.69657099660885
O          -1.98242430520346    1.90377131373692    1.82608157414463
C           0.82925558158009    1.71707479146145    1.23197582537695
C           2.22600675532327    1.87180738591667    1.08366264185041
C           2.93622400731199    2.44782997713020    0.04012183328012
C           4.30726023011949    2.42082554558561    0.25888051125116
C           4.65303564929079    1.81697579691038    1.48636723539294
S           3.28803137662128    1.31987219582737    2.37320181022485
C           6.06101383551581    1.79663984132837    1.59242349950938
C           6.61441280792523    2.39233788781824    0.43839752411993
C           5.52544728268031    2.76900603427806   -0.45238552967552
C           5.61270553925715    3.24881401783411   -1.72497921572019
C           6.84167575621476    3.44239715325467   -2.39344285235602
N           7.82321439331349    3.57483641423085   -2.96926525420027
C           4.45156917908263    3.52812250756417   -2.47804666627690
N           3.49777592422151    3.75426784398317   -3.07295930595199
C           8.00220567117891    2.43820938225219    0.45935149384272
C           8.51511348253475    1.85600560484276    1.61399222289177
S           7.25495099093024    1.25920195179727    2.68586749135627
C           9.87365556714353    1.71251908126998    1.95043165425570
C          10.97564566108897    2.28429214834971    1.29757066380049
C          12.23475575226501    1.90645158778220    1.88174057144256
N          13.38913330623674    2.29515956391562    1.33569566119288
C          13.32012108309415    3.08590233299245    0.28828455602382
C          14.60121124441545    3.44368680426682   -0.37674465786157
O          15.65812597284849    2.94125179467582   -0.06604629080051
C          14.47891005765243    4.42661831541868   -1.46878151626739
C          13.31378516814125    4.93181829171025   -1.88637918337558
C          12.01007337655119    4.58260201234894   -1.29321558474591
O          10.97479108672287    5.10849787790304   -1.63624645271546
C          12.06808820857544    3.56064120238465   -0.21431345416508
N          10.92302786487936    3.13799012343243    0.27255297183535
C          12.09252744883581    1.07371455840039    3.00170794697247
S          10.41254361596262    0.75024622441037    3.28983235080240
C          13.11770054141731    0.54594865836675    3.80764600975556
C          14.46532138017209    0.88940606318049    3.77141196045128
C          15.19728207173062    0.18267834567295    4.71662863527018
C          14.41228794283878   -0.72315925541679    5.46253009291080
S          12.76497336597460   -0.67518011351230    5.02355312378356
C          15.24621688905110   -1.40804830177028    6.37316835268949
C          16.56531720386180   -0.93411573200102    6.21285620164786
C          16.57096708834615    0.10221262942958    5.19422731563163
C          17.62655719363961    0.89025318946726    4.84494501417690
C          18.89767980960034    0.70594496520921    5.43129444061715
N          19.92444735037642    0.53886381434796    5.91350330717564
C          17.52016107592853    1.96274135105261    3.93213884628066
N          17.44577061144786    2.86022053122424    3.22398523829013
C          17.45892366375538   -1.52080800899684    7.09948648203636
C          16.84158182014783   -2.43812565676918    7.93764492670346
S          15.12458398311603   -2.59343777551624    7.58847773501653
C          17.40765208351854   -3.23884848187541    8.95532788853230
C          18.57409354024342   -3.06606993772516    9.63308493935719
C          19.49849264431121   -1.95867106685558    9.77010845765010
C          19.19626785281998   -0.62254178484884    9.70980140265040
C          20.11912283647478    0.40600085132579    9.99580712001032
N          20.82578406239443    1.28088192859888   10.22309524935545
C          17.90719805457254   -0.11367721252385    9.46276952821419
N          16.86838256353295    0.34744690764175    9.29729725849045
C          20.75519555147445   -2.50679025000672   10.26801955316885
C          20.54327554030092   -3.85463408552910   10.66016233230065
C          19.15409204212326   -4.23514870701307   10.35966186194269
O          18.59276038985263   -5.27968995627770   10.59782726707316
C          21.53701480632845   -4.62394241149839   11.21668805135939
C          22.79748004950129   -4.04238951430716   11.38260740333954
C          23.00321618268784   -2.70322557881640   10.96884196762223
C          21.99740667759080   -1.92108388447402   10.41289130138628
S          24.63771186985184   -2.20055220219300   11.25731839233295
C          25.02307381870049   -3.74996635508184   11.92182277201552
C          23.98250126636154   -4.61164008389509   11.92781674851250
H          -1.20824809250284    2.38204728221359   -3.77632454236275
H          -3.53534815754122    3.10809491410320   -4.06314078668895
H          -5.05197215927325    3.29838792973907   -2.14475246789239
H          -4.23658471040382    2.78342797341443    0.15235858975945
H           0.46208835722512    1.62470058821961    2.24997822424766
H           2.46010792585051    2.89819212470554   -0.81172285312266
H           8.63978650809349    2.86497628136826   -0.29417679624920
H          15.41451579521469    4.71428929037957   -1.92914124993818
H          13.26858353015297    5.64859507763084   -2.69521951329930
H          14.84958233513079    1.61261845364587    3.07442316539960
H          18.51675359727576   -1.33168977061084    7.11914125713905
H          16.87090429803880   -4.15056835862688    9.20142803341832
H          21.34620945914460   -5.64291550742845   11.51559613609553
H          22.20088528268507   -0.90929072682433   10.10324226909189
H          26.02200018994170   -3.92319284815428   12.27229218054799
H          24.03564239989246   -5.61803148237179   12.30173829843582
