98
 SCF done       -207.985140698950          0.000564342800
C          -2.25648867771759    3.23108694911778   -0.92261158618543
C          -3.46677238902668    2.99516362605586   -1.56164319270702
C          -3.58050495016589    3.05376733550271   -2.94378093822109
C          -2.47355316777341    3.33506045204544   -3.73229401625356
C          -1.26507726451731    3.56341568128637   -3.10253477046719
C          -1.14872433936756    3.52622335057097   -1.70016978378908
C           0.22825060819293    3.85176316038112   -1.32994002902380
C           0.61524034855862    4.33589947125844   -0.10868524931536
C          -0.24893218724951    4.45474686679592    1.00137812741637
N          -0.90521744654248    4.58016033775214    1.93381577162553
C           1.89310806168633    4.86371546593613    0.16192356382916
N           2.91235605968024    5.32435882516437    0.42091226727729
C           1.01004789764708    3.83701794716637   -2.54933217754997
C           0.05358180245367    3.84689383998949   -3.69815548783881
O           0.33436173406673    4.00820828595322   -4.86221714772956
C           2.34138129501875    3.73891920691592   -2.81292672102081
C           3.39114872932411    3.35247502240986   -1.95027592768401
C           3.32221340350566    2.64933455289546   -0.75451573875887
C           4.57523322795424    2.43698878139481   -0.19935454605728
C           5.62322272242464    2.97382869827496   -0.98045188838962
S           5.05255150523259    3.71748444569720   -2.40057086800383
C           6.84991060435261    2.72744000129644   -0.32301822136301
C           6.57593973817803    2.03786900288925    0.88000751557915
C           5.14027656733068    1.84493821015233    0.99978681432670
C           4.45658395997872    1.26782403163213    2.02945320879530
C           5.10729169673287    0.73218926306622    3.16075437453388
N           5.63472845978279    0.28924277016157    4.07723394427606
C           3.04857555328679    1.17768718174907    2.01417416209001
N           1.90440033707403    1.10845623335164    1.98208860745402
C           7.72004188731687    1.74752053797823    1.60562663341493
C           8.86907872495753    2.20768607752639    0.96892968676056
S           8.52066031522663    3.01658024381721   -0.54991713312095
C          10.20113487230723    2.07532209685771    1.43264907666175
C          11.28831147112513    2.60478720100039    0.69693252429460
C          12.66120234931553    2.50735358522713    1.12751229687479
N          13.62758075580172    2.98812887418685    0.33271418199477
C          13.31747292492078    3.56336915405220   -0.80262419940869
C          11.95019540953724    3.70748478321930   -1.20497333204129
N          10.99396786356236    3.22055526095977   -0.45376665574243
C          11.61464326225240    4.35747511606896   -2.41831496860665
N          11.36958764352030    4.88258506440325   -3.40599563786447
C          14.35342347778387    4.02414750219421   -1.65574787287127
N          15.15528017857404    4.39256944095386   -2.38483526958702
C          13.00209321456941    1.88124326378779    2.35372320660663
C          11.91769978223122    1.32614881204602    3.07023428454532
C          10.54704491514818    1.41754965668480    2.63434717492234
N           9.72236320323859    0.81762847095965    3.49408915624860
S          10.56361849161028    0.20842818395175    4.71197951008041
N          12.02365761596977    0.66579057776889    4.22397055339593
C          14.32362816889308    1.78688604126479    2.86344909527654
C          15.48002151536638    2.39339057671018    2.38316884191022
C          16.59244371474064    2.06736601256040    3.14329242714809
C          16.29185701425740    1.19398757730527    4.21282160182199
S          14.63117849640831    0.80888517184628    4.29325515998660
C          17.48945603475712    0.91426291807783    4.90938894046632
C          18.54759113870993    1.60809297288210    4.28272552116660
C          18.01347397989323    2.37362000749619    3.17024975921649
C          18.69713959655775    3.24112051904090    2.37056451075155
C          20.08062246999427    3.45852327248717    2.54301610522523
N          21.20592608211522    3.61540205167716    2.69783044949716
C          18.06203744929837    3.98368544600011    1.35182896870432
N          17.53990105084585    4.59266418186781    0.53335133875652
C          19.76939671288550    1.41355003316076    4.91035650995953
C          19.66445688187884    0.58190369372467    6.01678738327082
S          18.01792265452734    0.01069044315708    6.25227998303491
C          20.68642563863494    0.13817516149326    6.88657025537645
C          21.91778716929946    0.67829564281738    7.09185697836542
C          22.51674012146191    1.95313101520842    6.75077442300540
C          21.87473815735361    3.15991219993184    6.64632333744092
C          22.54072773708692    4.39032015930230    6.46237571300905
N          23.03376209994043    5.41723214344251    6.32690164126278
C          20.48694786376277    3.33063110133242    6.81212536708098
N          19.36447262704187    3.52168661370046    6.96148048526235
C          23.96283549233894    1.77922225560492    6.81698776039931
C          24.24569733764828    0.52587488284258    7.42096523262403
C          22.98203813026726   -0.17382671867944    7.70323855155454
O          22.81771273162422   -1.23395077885764    8.26115714514463
C          25.53035002483335    0.09622201554216    7.65428616961121
C          26.58003141709706    0.93286250983123    7.26314013244726
C          26.28575992707488    2.17270869742429    6.64385117554514
C          24.98729534003544    2.61328279037061    6.41520345463113
S          27.73581539143574    3.02956593017697    6.23193351702103
C          28.70421107289820    1.75340652014926    6.88309842921469
C          27.98301792122524    0.72728196493764    7.38542766820956
H          -2.18958782575716    3.16908001553410    0.15157354374099
H          -4.33665538189216    2.76153653666723   -0.96656074324814
H          -4.53815612476102    2.87420533591897   -3.40846136566886
H          -2.54003586148625    3.37785397318151   -4.80843894461820
H           2.61521158347422    3.92479108945077   -3.84733265211759
H           2.40036227602617    2.27952506570302   -0.34404735914587
H           7.75779819245884    1.23178040206822    2.54756544868535
H          15.47837710775643    3.03304590577747    1.52051043869046
H          20.70513384406391    1.81525986701779    4.56675249312047
H          20.49926526128376   -0.79062793770503    7.41695962943750
H          25.71890212612441   -0.85686874905072    8.12341645679861
H          24.80820330017239    3.55903132166405    5.93086359521198
H          29.77185773374109    1.85137928070613    6.84819292392140
H          28.41416235777996   -0.15147003307826    7.82963921782517
