96
 SCF done       -207.414217889390          0.000560513789
C          -2.17335693784159    2.47282390200084   -1.50311970417308
C          -3.44465366212333    3.02755518445525   -1.57317335519970
C          -4.07957923631790    3.52971376352605   -0.44566145403563
C          -3.44829270017990    3.50618681771923    0.79018174384055
C          -2.18031648605578    2.96233292451551    0.86486391330598
C          -1.54036263995368    2.43307528117082   -0.27173403414766
C          -0.23948719615616    1.89543427721934    0.12468516651938
C           0.45696809670631    0.94099690285976   -0.56786177958312
C           0.06822223004806    0.44424313883011   -1.83072037646127
N          -0.20698954371580   -0.00265600331064   -2.85067788129037
C           1.58653312562983    0.26940159909911   -0.06001392097545
N           2.49635823389906   -0.31724346255056    0.32242840588078
C           0.00726263517456    2.33936496355554    1.48116978793925
C          -1.28552983695827    2.84699759068391    2.03155947194809
O          -1.50935077094645    3.13925006911225    3.18278819134347
C           1.12947909371651    2.44744920774152    2.24370401116970
C           2.48101297226606    2.40586689076008    1.83590483591616
C           3.01101385940772    2.59479437458529    0.56662732218750
C           4.39586357974821    2.51773023592630    0.55912645654199
C           4.94196579432890    2.27342875684709    1.83793929007343
S           3.74137868997470    2.15925185471948    3.03929722995538
C           6.34943560067123    2.20616881436890    1.72128935981349
C           6.69461078607835    2.40450824792809    0.36599423367152
C           5.47732303245095    2.58668394609629   -0.40811847177268
C           5.35277002542077    2.74712434944266   -1.75641061680210
C           6.46221102242273    2.77445780577746   -2.62843321847808
N           7.35350153300005    2.80022918721961   -3.34838490733263
C           4.08549361423160    2.88856184440614   -2.36120079238341
N           3.04792148894322    3.00734174003977   -2.83495438097448
C           8.06440904523892    2.37908819940879    0.14826368313528
C           8.77671974222950    2.16183993044448    1.32291683601657
S           7.71773378088180    1.96938965919172    2.71419533008130
C          10.18528887796917    2.10210072202907    1.50800162146077
C          11.14181036555476    2.33891572870820    0.49055237485062
C          12.55095162103486    2.28904377372122    0.76111385004494
N          13.42689036487818    2.52823309466397   -0.23580207556067
C          12.99597377555455    2.80364100302315   -1.42306522027748
C          11.60213228401661    2.86309021151061   -1.68831764129288
N          10.73114383499998    2.63758270501299   -0.75999200848768
F          11.15415469045941    3.16115919277460   -2.90061721127766
F          13.89296149073859    3.03267541643655   -2.37454676251552
C          13.09130778354490    2.00926993215975    2.03737368484535
C          12.13920488141794    1.75803301167361    3.05205470842767
C          10.72451042797697    1.80969437325393    2.78173606706572
N          10.00520508292120    1.55221781529736    3.87498273269114
S          10.99366934345480    1.27056985546788    5.10879821794115
N          12.37878636138008    1.46380666997293    4.33106539872946
C          14.49132112881692    2.00710494843503    2.27113471549854
C          15.12793429409139    1.76696696243060    3.48510730880767
C          16.50615696494313    1.87638696956002    3.37928927490043
C          16.92958810932443    2.19755650032652    2.07025152684503
S          15.62454034034513    2.36043725671037    0.97940633918386
C          18.33974719885214    2.30135071571388    2.07397487590556
C          18.80883848277790    2.05261099701252    3.38272367510361
C          17.67215829597013    1.76527707299633    4.24011715251268
C          17.70686106097094    1.44114699612920    5.56469854596913
C          18.92733945579210    1.35980494709710    6.26808316177566
N          19.92697780080233    1.30596310450406    6.82736153012629
C          16.53716462632293    1.17661524002330    6.30761998460029
N          15.58933961144774    0.96896617313917    6.91829466304328
C          20.19023773790617    2.12716776225056    3.48657748158728
C          20.79239378320036    2.42385238261916    2.27061043888839
S          19.60543928883926    2.64058450540843    0.98930214773223
C          22.15909623707624    2.62375074675586    1.97791068408893
C          23.25684033939158    2.26627547726362    2.69895260569452
C          23.47534433130110    1.37063111056765    3.81564233810496
C          22.77758250850079    0.22427579969834    4.09753604364158
C          23.13658266338097   -0.68340878221494    5.11628928980614
N          23.39186763626338   -1.45852074538616    5.92271948434118
C          21.68331008479305   -0.23505445783368    3.34015180036576
N          20.80066646843240   -0.65546625703779    2.73771341902416
C          24.74462219578199    1.74784944615308    4.42780157826309
C          25.40582250391746    2.67157751848520    3.57671556388218
C          24.54711835482110    2.96432224048105    2.41774551225443
O          24.79186131567925    3.65836711937966    1.45803879694235
C          26.64734189059706    3.18312140672843    3.86974137572009
C          27.25713157037634    2.77539852119769    5.05998410127552
C          26.58012805886593    1.86725228342361    5.91053493472625
C          25.32814564561316    1.34188197569148    5.61155515126597
S          27.51533066592230    1.51844728225849    7.32879020736844
C          28.78052614007179    2.56301794411712    6.78166890484695
C          28.52159600870633    3.15221454677837    5.59385763994864
H          -1.69460268569278    2.09943096779786   -2.39395615975190
H          -3.94710923090988    3.06750832807159   -2.52783023200175
H          -5.07154290757677    3.94647166164948   -0.53311551334644
H          -3.92257939557591    3.89845797267196    1.67649582052001
H           0.95012533941384    2.66368177582059    3.29260754743523
H           2.40640854212327    2.82339070038077   -0.29185289262400
H           8.55006166444631    2.51249736648821   -0.79978908303341
H          14.58076771108376    1.53246516304095    4.37957350353616
H          20.74135314066105    2.02079144093377    4.40303245306748
H          22.37463494979056    3.20681676235343    1.08714017839039
H          27.13208617532230    3.87731174288874    3.20101989074793
H          24.84453525603362    0.66122408035016    6.29269958760656
H          29.65429282544167    2.67384434757316    7.39398669580038
H          29.19152565752490    3.83244647969229    5.09991783711721
