72
 SCF done       -149.914909241384          0.000691711228
C           0.33171832267659    5.95590244767726   -5.15621392497931
C          -0.60119461662658    6.93169582707110   -5.48139452491740
C          -1.54037120337511    7.37216348546650   -4.55898412125318
C          -1.56370471583055    6.85416534948496   -3.27164454875522
C          -0.63340335306292    5.88807887491457   -2.93938224384440
C           0.31170145709765    5.42719595602343   -3.87606766839791
C           1.11201378777428    4.37525485296495   -3.25463143926000
C           1.77702743330629    3.38107953336565   -3.91946708765127
C           1.95952341412536    3.35569190350647   -5.31700476606143
N           2.14822711594731    3.30065188753556   -6.44758781475147
C           2.26243962767367    2.22166416295549   -3.27746031156639
N           2.61495585089797    1.24374588303924   -2.79096679397726
C           0.81129298996471    4.39295538750090   -1.83718874533780
C          -0.43104784441033    5.19819060499085   -1.64952201159817
O          -1.08489852635036    5.29250073651624   -0.63778678209992
C           1.48458228005985    3.93195573917826   -0.75239013949484
C           2.83913044067521    3.52957616364390   -0.63773884124396
C           3.37054914872336    2.79452524623447    0.40472625067727
C           4.74495252734955    2.61464418427585    0.27140061592646
C           5.29308689365988    3.24459063803835   -0.85531203530281
S           4.08038322827790    4.05368606150228   -1.77154876075199
C           6.67173221691421    3.08720840353348   -0.97792098688398
C           7.18721977495714    2.33226780473280    0.05662492747898
S           5.96144558094438    1.80873923302503    1.19323175247610
C           8.55267683129802    1.98909675580809    0.24399808108030
C           9.13816210731910    1.29197596639214    1.28192115528456
F           8.44433516003441    0.80346747189694    2.31411939910586
C          10.52858856287298    1.14976250004767    1.15752203674663
F          11.27998955730441    0.51005875275793    2.05846628593403
C          11.04923781811661    1.72744343035663    0.01694820506911
S           9.76962955227721    2.46076613001325   -0.90662492910404
C          12.39826688389053    1.77977552243945   -0.42432333421016
C          12.84241309177342    2.31437932801574   -1.61699499926407
C          14.22706283065152    2.21889410639491   -1.73328445930145
C          14.85213784267485    1.61278007182652   -0.63399915259156
S          13.69940591603439    1.14880220461798    0.56453042531430
C          16.23546447345641    1.51036321319043   -0.75905447847347
C          16.69362838363933    2.07000042091363   -1.93665100271673
S          15.37461033339897    2.67860085651717   -2.93127660109493
C          18.04082763655319    2.06808454512647   -2.37839813263213
C          18.62593746633972    2.80106088174321   -3.35966817232173
C          18.19833489551577    3.98172125422635   -4.08372535813132
C          17.46714102081458    5.01717355828125   -3.56496218417060
C          17.15926996773489    6.19300406546176   -4.27767716332071
N          16.87351339697065    7.16067466360230   -4.82448496090341
C          17.03250005196479    5.05135413714748   -2.22327070515620
N          16.71609313228111    5.12994971780659   -1.12272049542175
C          18.93763614970616    4.00704516571587   -5.33864848862269
C          19.97560962305162    3.04042300138630   -5.27124319087091
C          19.88781800131929    2.31540690489613   -3.99043332463961
O          20.63270244270595    1.46772300479146   -3.55678373297557
C          20.87545146454740    2.85870532272721   -6.29412548882833
C          20.73646107852453    3.65368922860492   -7.43591107234603
C          19.68793606349918    4.60401543333998   -7.49731169357220
C          18.78386099511393    4.79841726960472   -6.45947867919732
S          19.70270552110628    5.45932885840938   -9.00641098875304
C          21.08556852825591    4.56185847972440   -9.53000523165638
C          21.52129669269553    3.66016798465133   -8.62358759006446
H           1.05709571626316    5.63246387200689   -5.88558402213838
H          -0.59426208527423    7.35405509618591   -6.47496476816176
H          -2.25742189712892    8.12613812068185   -4.84658446662306
H          -2.28400852701595    7.18639706580760   -2.54008470451608
H           0.92841600875752    3.95288078700860    0.18047368801926
H           2.77332680387655    2.38893772618043    1.20037914180486
H           7.27566875155485    3.49277288196124   -1.76860530986431
H          12.18595409388718    2.74822524020257   -2.34855134982488
H          16.88774886625617    1.08020011934643   -0.02164950922016
H          18.67503513186378    1.31177741568244   -1.92503631269005
H          21.66240170377119    2.12481609942202   -6.21555254867195
H          17.99612245787463    5.52865481985058   -6.54791170513880
H          21.49249404156903    4.76823468967005  -10.50081619380545
H          22.36671362869749    3.01389549028107   -8.77544191496823
