89
 SCF done       -196.302975051963          0.001499260408
C          13.67652098122628   -3.57770366039064   -7.96179355669670
O          13.30371552569127   -2.98120115367401   -6.97601542559816
C          13.78780637634344   -3.07600324339048   -9.32484913597376
C          14.18829080622307   -4.07189056797808  -10.20821063329106
C          14.28910657199405   -3.61023616392761  -11.53434811734328
C          13.95971580123988   -2.28883475076080  -11.61459322365620
S          13.52591862609293   -1.57906847493978  -10.10445403160052
C          14.38033860479483   -5.30347898686547   -9.47227345114248
C          14.85544398546737   -6.47233183814087  -10.00341078327861
C          15.15975808965704   -6.59034572103535  -11.37656559259783
N          15.40355158269235   -6.70727844046479  -12.49118235204656
C          15.11005550416704   -7.65364317824539   -9.27829790186910
N          15.34703593542090   -8.64044374881238   -8.74198658141173
C          14.02948651126710   -5.02917577426350   -8.08524449856133
C          13.83524258513954   -5.97410779009486   -7.12375033781994
C          13.54688927105164   -5.74316937354336   -5.75666428188165
C          13.90348101938389   -4.68636104741435   -4.93367992762125
C          13.36232020071308   -4.81138851227929   -3.66040402572806
C          12.57657624642136   -5.97562426541677   -3.50462572314308
S          12.57178183687764   -6.94285396620063   -4.90580564870866
C          11.95912025625484   -5.94009446426938   -2.23494039311435
C          12.36446298355366   -4.75714565665634   -1.57706148012186
C          13.27705653082267   -4.02451295704107   -2.44236766920366
C          13.88690924111837   -2.83433693098175   -2.17878617762361
C          14.77839162290372   -2.22357409871304   -3.08757744575171
N          15.52032500504417   -1.72955595328464   -3.80834244714717
C          13.66224700626252   -2.13384725041607   -0.97339724186165
N          13.46028399435617   -1.55581997248116   -0.00425718997115
C          11.73414921328902   -4.57693799705509   -0.35600004705568
C          10.82734006440450   -5.59673404567721   -0.08140375456747
S          10.79890015381412   -6.82118097385094   -1.34282682804548
C           9.87327273149026   -5.65072457162851    0.96576223693895
C           9.78499415743154   -4.69463983219827    2.01067492210921
C           8.60052002989520   -4.60045697496904    2.82669486733458
N           8.49893441120065   -3.63219392973378    3.74371888562115
C           9.49703589959826   -2.80532709184312    3.93821321812893
C          10.70481069567839   -2.95004101784575    3.18170573580192
N          10.80630357348518   -3.86021502463883    2.24389255274256
C          11.81747405589588   -2.11769795981712    3.46845520613010
N          12.69429162409769   -1.43736365276796    3.74859635469394
C           9.37160331371820   -1.78916039662903    4.91759652889475
N           9.29531609776612   -0.96176703373201    5.70547746580695
C           7.48718302284704   -5.46207812242769    2.67645962407137
C           7.67496499648603   -6.54284266337743    1.78515523016523
C           8.84691256832371   -6.62221559527066    0.95014293728816
N           8.80318620878492   -7.67868438988899    0.13887983414840
S           7.44775290946375   -8.49932875206056    0.40770950141598
N           6.83750678499358   -7.55169937617007    1.54547555777872
C           6.24308016206709   -5.15789107210934    3.27886271695154
C           5.04726112281809   -5.84579111222556    3.09301998487598
C           3.97230242162348   -5.16811264608386    3.64480526687191
C           4.34935256910568   -3.95994358416678    4.27340077391082
S           6.03440326234463   -3.67900155431052    4.20215038589851
C           3.17318780650616   -3.28464871592415    4.67323283581690
C           2.05598804208884   -4.05927460509796    4.29414800520702
C           2.52260920967552   -5.27545484047536    3.65443190322983
C           1.75634943140429   -6.26415306260213    3.11022188025857
C           2.31778258047299   -7.39049872949746    2.47285928409394
N           2.76775461404207   -8.30709286252823    1.95119992580528
C           0.34736766293619   -6.20277425070784    3.14071661773471
N          -0.79700431328445   -6.13554063210778    3.16755049714920
C           0.84961055449106   -3.39993038075048    4.49664403136066
C           1.03120422334276   -2.13251996290848    5.02550954562128
S           2.72483014744932   -1.78193147692519    5.33622962595702
C           0.04092839658141   -1.15195240380475    5.29234950876868
C          -1.13614545395655   -0.98364751469491    4.63968042424436
C          -2.20905461564098   -0.14343488945438    5.27062440516125
O          -2.08293369189142    0.57450742763307    6.23355773086301
C          -3.39309318346898   -0.44591066571567    4.47747530682186
C          -3.08480528534550   -1.28021533992049    3.40622354273079
C          -1.65790567609826   -1.53539492466389    3.39661204483103
C          -0.96755483791215   -1.97700657767079    2.29964908836910
C          -1.62856772564437   -2.40030339381809    1.12559752095727
N          -2.13892939089616   -2.75874687968880    0.16322081952226
C           0.43274701559481   -1.98127244287382    2.15243896624598
N           1.55993033941323   -1.96746749266486    1.93312436125429
C          -4.20692181043471   -1.58115534386166    2.61187836737082
C          -5.32613295677189   -0.97641122938544    3.10401909997412
S          -5.04952517057816   -0.02845116367704    4.51751334448975
H          14.57985246299498   -4.20690038068560  -12.37878034162689
H          13.94803069996892   -1.67744795426259  -12.49578444042738
H          13.83716122600495   -7.01537099576698   -7.42474109724301
H          14.53252706311239   -3.87816348472105   -5.25479991242534
H          11.88355036370248   -3.74767576905891    0.31014732942823
H           5.00084123333571   -6.77171760978399    2.54963700976619
H          -0.12109186385764   -3.81355504310429    4.28961108288285
H           0.22067141132649   -0.47615175129354    6.12205364133115
H          -4.19880652515959   -2.20874677323147    1.74015681736427
H          -6.31961673914860   -1.03144057286413    2.70366734368485
