92
 SCF done       -182.739226711686          0.000605845564
C           1.25531382710540   -0.67933431165279   -6.92987191327292
S           1.15418875446366    0.62261795945288   -5.66227997116560
C           2.18660739695727    0.01298350878661   -4.36772793017590
C           3.00685159561844    0.93717602901194   -3.69525332741444
C           3.07803763247488    2.32821252823726   -3.92646892489335
C           3.94775837723958    2.97255731372878   -3.09350632191470
C           4.24825170482924    4.35684072579966   -3.03927089476931
N           5.15904372507802    4.87469212083079   -2.27227000276851
C           5.21086921076661    6.19769238396807   -2.42383782678653
S           6.17552936224804    7.43652866564326   -1.72944393556159
C           5.26717649605420    8.59981300435749   -2.72646034384384
C           5.54196114209437    9.99157621524694   -2.67202447162620
C           4.83251124237793   10.98037406410054   -3.29788915022477
C           5.34991355821714   12.27286628220816   -3.06450480783699
C           4.85406701088954   13.50004706463935   -3.54942470980534
S           3.36836778322708   13.41682341200548   -4.48996513617692
C           3.45814864979223   14.81234890731577   -5.65028781082070
C           5.54792956475258   14.64863185348849   -3.19674475152438
S           5.14340093758669   16.30663954165958   -3.55381350354229
C           6.52270603537475   16.89834931705997   -2.65049386811868
C           6.75395647491769   18.29747032662892   -2.58932761960064
C           7.51861100101513   19.00526114028029   -1.72204204837595
C           7.89449617694883   20.40953664218737   -2.10289720470397
O           7.41069212950791   21.06402418692131   -2.99560797816627
C           8.97835321207569   20.73697459776683   -1.18703490314770
S          10.05633353068625   22.04344622892296   -0.96201602336425
C          10.78191062337418   21.21920119687365    0.36678057461362
C          10.22444505751266   20.00451802960368    0.63893663561146
C           9.18125663496608   19.71814105476752   -0.26176645888253
C           8.19858074172218   18.67261031036830   -0.47935246308931
C           7.87650126914945   17.72219837324994    0.45174719860482
C           8.61469098467206   17.57213446534903    1.64609432671774
N           9.20788806201930   17.41407428255150    2.61503828316503
C           6.77470236891525   16.84734442447185    0.39568515622558
N           5.88386903533652   16.12473164041998    0.44453728073913
C           7.26726763806051   15.86927706317053   -2.14379470327911
C           6.73191728378722   14.59291975916526   -2.41077129083630
C           7.20659141027275   13.37507902941151   -1.90902133724625
S           8.63261566695874   13.34300774655449   -0.85082790683001
C           7.80484990038153   12.95908093010475    0.72474079241541
C           6.50615916206229   12.23436938053400   -2.24048762224185
S           6.89440139497693   10.61022613253039   -1.75676413635617
N           4.34879556717100    8.08208453917790   -3.48772966660954
C           4.30356400151071    6.75936012705143   -3.33890768652884
S           3.34629437214332    5.52011549734408   -4.04596055529210
S           4.74040668706963    1.88739714997881   -1.98298994109273
C           3.87263537975885    0.52481569804058   -2.64544277634669
C           3.94238021380367   -0.79703765035877   -2.23840293315573
S           4.97882237657329   -1.42345503870315   -0.95703510888382
C           6.54650285004830   -0.53416910635789   -1.18432796102891
C           3.07762660752358   -1.70967282925705   -2.87105830221941
C           2.95229602000971   -3.08350877890259   -2.58733663655786
C           2.02991497221592   -3.73154560411739   -3.36468632712539
C           1.61619484506960   -5.08861947161602   -3.32135897232386
C           2.28619480352469   -6.16102942227277   -2.83138284710758
C           1.51392458524661   -7.40777725132908   -2.51307428891371
O           0.38307992719148   -7.66140060349145   -2.85415473104838
C           2.43112444604319   -8.17489867851071   -1.67890149101478
S           2.37131386773274   -9.63453674831178   -0.79218940149101
C           4.00593017908753   -9.40356869868316   -0.29510043708152
C           4.58197400696147   -8.27038931529932   -0.78931715945167
C           3.67175475583176   -7.55229119787062   -1.58744201811946
C           3.66352302030801   -6.35548356250284   -2.40690423772258
C           4.78860897587569   -5.71617413565746   -2.85441643707165
C           6.07412955400928   -6.06118924735365   -2.38671571939929
N           7.12553152289529   -6.31212472336336   -2.00229829694822
C           4.80990189214192   -4.73065787457487   -3.86075849742701
N           4.89524337583966   -3.96190785841110   -4.70890362343497
S           1.24555252236476   -2.63147152873738   -4.47771921041165
C           2.21342859749551   -1.29717253265452   -3.92029007629267
H           1.09094202767240   -0.17534440811093   -7.87734495044173
H           0.48798685134711   -1.43024906601783   -6.77089848525061
H           2.24483384082367   -1.12236742499354   -6.90901662731854
H           2.49743731116744    2.82998132169638   -4.67948094691740
H           3.96800641329318   10.77628046347039   -3.90164381529155
H           2.79145147741668   14.54593497012851   -6.46502163652340
H           4.47283361798699   14.91367493809650   -6.01897491318477
H           3.11808868787145   15.72920468634561   -5.17981189903656
H           6.29971969215146   18.88769694683215   -3.38003924697089
H          11.59333011428495   21.68972925280828    0.88685622158985
H          10.55462200833406   19.35929416476502    1.43164648163696
H           8.20023076031636   15.99549353490165   -1.62492246508413
H           8.57256787593383   13.01635749913719    1.48905657813556
H           7.38531674613478   11.95893817757490    0.68689123734195
H           7.03438506642057   13.70303813003900    0.90606730158385
H           7.31112026505162   -1.18857647715386   -0.77699746918405
H           6.53560485372242    0.40767445485652   -0.64619968932521
H           6.71565979050574   -0.37803069212208   -2.24341527008904
H           3.49920264372737   -3.55393386171450   -1.79016409227971
H           0.60769356991338   -5.29305216175255   -3.66770545425723
H           4.46074688423654  -10.13570414029397    0.34321346135705
H           5.59275581102595   -7.97219499851303   -0.58134792598793
