94
 SCF done       -222.914859376003          0.000278065345
C           0.31756001094586   -5.18543251108969    7.19680666990140
O           1.00330309829227   -6.14830437728946    6.93393005273679
C          -0.90806855327807   -5.15652940248878    7.98388898308784
C          -1.40968660197855   -3.86646030767127    8.10458343665108
C          -2.59424008216315   -3.81649194882180    8.86470374771300
C          -2.94769859754313   -5.06164933349026    9.29495079019016
S          -1.86971863134290   -6.31089438125750    8.79506767193006
C          -0.54218535468812   -2.95611259460978    7.38773125105310
C          -0.77868248042866   -1.61499655302868    7.24447346862387
C          -1.90053349133413   -0.99650119572929    7.83906741104297
N          -2.80202406757080   -0.46971854524668    8.31390204645149
C          -0.00030649615949   -0.69814294944921    6.50916314020596
N           0.57268037052416    0.10506844205914    5.92143437836543
C           0.55275012608056   -3.75197705680231    6.83763507493130
C           1.62904920115229   -3.21095735386150    6.19993358821660
C           2.72982531793366   -3.81587787970245    5.55048572011806
C           2.98767222901133   -5.12268137043456    5.15988711509401
C           4.19702077086361   -5.23519562444263    4.48464660619321
C           4.88331486529881   -4.00609415237735    4.36364142602452
S           4.02453747447120   -2.71612246418705    5.05715389121034
C           6.10337312120075   -4.22384698434140    3.67710554974711
C           6.18102433654237   -5.59708433427602    3.35609953045553
C           4.98844049942825   -6.27402054870378    3.84700153389192
C           4.68325886617187   -7.59522368104792    3.71253000168292
C           3.47560344617982   -8.16229098643131    4.17586401607642
N           2.49679745298893   -8.64806757977873    4.52068577246150
C           5.56392482255550   -8.49327168800205    3.07037221669104
N           6.28529112072695   -9.21732530613336    2.55144133206421
C           7.33688451259932   -5.90489174266890    2.66248133153086
C           8.15013284838330   -4.78738495765037    2.45644488059585
S           7.45401679390534   -3.32685269938105    3.15132179024416
C           9.37146493918661   -4.85088343457172    1.74721649225030
C          10.35139078144996   -3.89825203831524    1.46268905379433
C          10.28097884675875   -2.52339581259871    1.89390372252228
O           9.35131121017576   -2.04747811542702    2.53340471344712
C          11.43304242971987   -1.69863337983472    1.49353962336849
C          12.51313251509611   -2.21504713251705    0.73186297943153
C          13.46173429170206   -1.25309276756186    0.47149976361427
S          13.06154688854948    0.27575649853008    1.14283581708738
C          11.60352607893774   -0.36473456400505    1.78449042456480
C          10.68798978650510    0.52853569180977    2.56435130483566
F           9.48668005456837    0.65983177665408    1.99585309928268
F          10.50264554241084    0.10906612210964    3.81871862668379
F          11.20206272767602    1.76840717592269    2.65238845800569
C          14.73510329767572   -1.40602376925609   -0.30257540577437
F          14.52754947983582   -1.78215007496858   -1.56758531945979
F          15.39481096151561   -0.23515926671290   -0.36050107841731
F          15.57566339213872   -2.28335777812263    0.25126996198595
C          12.57497289486000   -3.62035045659240    0.29687866912003
O          13.52838084874575   -4.04456689061697   -0.34435072258125
C          11.44272624735339   -4.41992189943557    0.69532481526650
C          11.29636132756671   -5.77115865759792    0.37515738500319
S           9.80997968206736   -6.39095626774510    1.05048995136085
C          12.09056899923516   -6.67028554234887   -0.37191829029005
C          11.70811542116799   -7.99112592483604   -0.62107508114015
C          12.63692971504241   -8.67503719251523   -1.38304336816303
C          13.75161161284739   -7.87208753889294   -1.71366234224720
S          13.64787848283533   -6.28654172941544   -1.10121944996074
C          14.64249206676193   -8.65996899245549   -2.48690230368001
C          14.08922921863309   -9.94567739558078   -2.64822792362168
C          12.81730117735821  -10.00217562620984   -1.95157215300640
C          11.99392971164653  -11.08272200980101   -1.83506578907328
C          10.77477808425663  -11.02129711171532   -1.12736210148946
N           9.78005906181420  -10.95908573925921   -0.56149595212964
C          12.32334049314747  -12.32178763277402   -2.42405732483922
N          12.60814968604356  -13.31928778853641   -2.91259899340809
C          14.90776382672543  -10.80080612622404   -3.37723458862291
C          16.08813627098677  -10.18684205733900   -3.76454519313917
S          16.15649088912690   -8.50793802805665   -3.24729096738486
C          17.15373665067436  -10.71899088038786   -4.53161829027179
C          17.49387143345127  -12.01641067388193   -4.73782306297031
C          18.40198907793913  -12.33393521657205   -5.89364623446475
O          19.03646387857642  -11.53753339142398   -6.54350759900086
C          18.27796634778234  -13.77654378123653   -6.04251317480204
C          17.49323753510880  -14.32271457445192   -5.03109663785889
C          17.09252160717250  -13.26960120409974   -4.11706895112329
C          16.65730311708091  -13.48853024394347   -2.83739747365931
C          16.41079345012496  -14.79095887842807   -2.34988476814041
N          16.20731219779320  -15.84071664322444   -1.93614286212306
C          16.49889056615577  -12.49296986235920   -1.85521212498679
N          16.38542717855315  -11.72341468812370   -1.01082949259656
C          17.35518552065101  -15.71836681877656   -5.14538356393034
C          18.02845293474027  -16.18515308413362   -6.23622731940644
S          18.84870800011974  -14.96255811951717   -7.13254049479441
H          -3.15364867348639   -2.92696014719921    9.08653457510236
H          -3.80128485755793   -5.32143632172497    9.89018888008983
H           1.67223239377353   -2.12784622608002    6.17725779669229
H           2.31856525947948   -5.93627697176064    5.37365752457807
H           7.60231664545389   -6.88700796587386    2.31236380915867
H          10.78599872723224   -8.40799960838596   -0.25516674741622
H          14.64875656806139  -11.80581594027516   -3.65618481269192
H          17.75425720812613   -9.99933139232582   -5.08025675025074
H          16.79041536654840  -16.34213415385791   -4.47786803084153
H          18.09482601269868  -17.20277963118664   -6.56853910819272
