63
 SCF done       -155.520548729307          0.000790619593
C          15.45638091522442   -1.68753247402691   -5.62274607408544
F          16.30144223952329   -0.88461865958803   -4.98615446977860
C          15.63635956484873   -2.18891037202339   -6.89591843878877
C          16.70416202935526   -1.98568175043717   -7.78888600490637
N          17.58882249319060   -1.79994969637503   -8.49174373602809
O          14.59437283724107   -2.96521622289633   -7.21708838866508
C          13.73740359498525   -2.98107530952021   -6.17518172230345
C          12.50643526513044   -3.74091712773242   -6.32202098938648
O          12.20775855557130   -4.38336593180434   -7.29471660872012
C          14.22417759688339   -2.19162357027378   -5.12627999262218
C          13.68468165125443   -1.92086178074457   -3.82810082779168
C          14.17308752232099   -0.99701983412524   -2.92872177079557
C          13.44818902835893   -0.99120293980175   -1.73667831479766
C          12.40005447824622   -1.92060074096385   -1.71080813174818
S          12.30593347655022   -2.80093932510291   -3.18893583252516
C          11.69866285592131   -1.90273267019050   -0.50342063056512
C          12.21990722664678   -0.95283102816427    0.38870881702797
S          13.57697413794671   -0.07634031362997   -0.26273917243991
C          11.55397983387735   -0.90740905259034    1.60814028743090
C          10.51588115609171   -1.82140695927535    1.66671835028381
S          10.36383369332217   -2.75100056425327    0.18299287325855
C           9.61214169533778   -2.07077450577120    2.74064354458955
C           9.62812260639361   -1.39310691077931    3.98150014144439
C           8.67861685678441   -1.69775963836710    5.01687448624561
N           8.73260842658433   -1.02511832069037    6.18456928995108
C           9.63078759269318   -0.11508829884355    6.36806468454584
C          10.56855572479539    0.18447980122324    5.34465112898207
N          10.55247732744776   -0.43532871585888    4.21181105561457
F          11.49876077606785    1.11914265464635    5.52152544688661
F           9.64863258712973    0.52461025578180    7.53090392167457
C           7.66779320802057   -2.67533548989283    4.88449923900030
C           7.65169100626766   -3.35891048045081    3.64811958459928
C           8.60762222372857   -3.05560721851336    2.61109238806022
N           8.42051609170625   -3.81564896639807    1.53159283307230
S           7.18475631369955   -4.80415496886291    1.78402182732125
N           6.81516481951847   -4.32803454091525    3.26855293276556
C           6.74136915730445   -2.93841149272274    5.93221926382522
C           5.68985487488893   -3.84011100835898    5.89641880883482
C           4.97769402325196   -3.85325687097994    7.08933723890798
C           5.48145702171336   -2.96523127119868    8.05269324285741
S           6.84947863065452   -2.09276901087382    7.46283150384735
C           4.74089065088373   -3.01156671893565    9.23599822407914
C           3.67940532057617   -3.92394292683191    9.17220718737666
S           3.58502037016668   -4.74390826407886    7.64060731258613
C           2.92282095770947   -3.98695531080013   10.34242956570990
C           3.40318614994204   -3.13603092671646   11.31531975373072
S           4.80824523707470   -2.23457742384672   10.77219430337103
C           2.84165777846014   -2.95559640082798   12.62010302012409
C           3.33087323564163   -2.27697048256069   13.74254370721104
O           2.45271151068489   -2.35572197508795   14.76338567112420
C           1.39378840679004   -3.06642326296388   14.35695828495050
C           1.58432228024502   -3.46023553032232   13.04793488189238
F           0.72808324879399   -4.17595117387545   12.32744769396659
C           0.30317563674873   -3.31452195725950   15.21006413996784
N          -0.59908185670736   -3.53777798210749   15.87921349551515
C           4.58450488460126   -1.57816844553180   13.98071887769784
O           4.88041777865312   -1.03511020169484   15.01269240268367
H          11.84411693347806   -3.67015504542984   -5.44102512772103
H          15.00946621078499   -0.35161226260911   -3.12045213371880
H          11.79977421839607   -0.25096645338091    2.41957109577421
H           5.47263046796396   -4.44488484720645    5.03669149231082
H           2.07230537626343   -4.62994758386681   10.46900590609255
H           5.26586408637277   -1.59753350270856   13.11185846020336
