75
 SCF done       -178.222277195625          0.000940993286
C           9.77847026839542    2.60911923468473   -6.22863248949817
F          10.75513882346748    3.29802337531929   -5.65626158404947
C           9.32227630075536    2.79785019045785   -7.51594564326699
C           9.75176022737053    3.71863985616773   -8.48937500407199
N          10.11187939400734    4.47895480277787   -9.26598883959641
O           8.32705401985287    1.93389139809279   -7.77183277712470
C           8.12870549273123    1.18288713125483   -6.66156299106559
C           7.09423855870043    0.18694355072401   -6.71856738510096
O           6.79188351068838   -0.56088085975590   -5.81428991464329
C           9.01680685859558    1.55889468224783   -5.64180413379927
C           9.15685551436952    1.05782020886331   -4.31561993447406
C          10.06977615191602    1.52047150800727   -3.37707528381397
C           9.94567073832718    0.85864732040134   -2.16218137723837
C           8.92952326942560   -0.12046345952296   -2.18314133300933
S           8.13573300674256   -0.22892839256612   -3.68691251033155
C           8.85107934702868   -0.70995399179591   -0.89770711108542
C           9.81314460931079   -0.10060243417465   -0.06479594467917
C          10.54965811243131    0.88619277790858   -0.84002810488487
C          11.59428675213950    1.65199478295083   -0.41514227397247
C          12.24065106059289    2.58090746528180   -1.25856310554617
N          12.76913197989845    3.33540970445007   -1.94073088358273
C          12.11380506499140    1.54569242606071    0.89379747118553
N          12.54589867937169    1.44552942637260    1.95055589699232
C           9.77373907629341   -0.57074716024074    1.24032888236665
C           8.79519779154112   -1.54276640032902    1.41406124761641
S           7.93403146427366   -1.89316631719316   -0.08043816629672
C           8.41155433943697   -2.20918767229983    2.60937894970307
C           8.86200529907839   -1.84856805841486    3.90442414501741
C           8.36539715780301   -2.52042795927660    5.08030132815252
N           8.79531698795863   -2.14827215077034    6.29165455332724
C           9.65589756169496   -1.16898058578162    6.41416036809705
C          10.13182011230104   -0.48606879909490    5.24752333514139
N           9.73274950619350   -0.83932528258893    4.05166957507927
C          11.03519887899365    0.59873401176172    5.39176576144624
N          11.74972166231619    1.47619600321300    5.56387057010059
C          10.10095372758216   -0.79566778001297    7.70641831579131
N          10.47102986379732   -0.47133089388669    8.74049799388416
C           7.41600686751661   -3.56892133421801    5.03647105530808
C           6.99868706667622   -3.95295630891069    3.74297210614644
C           7.48362203302831   -3.27407623863693    2.56761033111702
N           6.94427197435849   -3.77405655786632    1.45466678704220
S           5.94310603711347   -4.96876463348705    1.83752531177009
N           6.13065184849701   -4.91511990866614    3.42584390724596
C           6.90052101589726   -4.14226562943039    6.22594892618231
C           5.98459937048912   -5.18560572717943    6.31472376116310
C           5.63484447708626   -5.45660550454320    7.62891889274173
C           6.28633639243440   -4.61102274966879    8.55153848071057
S           7.35055716061527   -3.50362745520200    7.79795106276439
C           5.82473155177053   -4.93750684537763    9.84804089701941
C           4.88580068659930   -5.98676601733612    9.75158158788437
C           4.75206028151232   -6.36045229104444    8.35324796262306
C           3.98234144785131   -7.34925893098826    7.81733329000208
C           3.95299488107358   -7.59840151520701    6.42759357530689
N           3.92065885712719   -7.80518588432527    5.30023848955803
C           3.17151282312507   -8.20909517734117    8.59087015130716
N           2.50645653346243   -8.92915945191722    9.18434947267998
C           4.34138036766879   -6.34273087040013   10.98278657274093
C           4.85816901181008   -5.57612133672183   12.01245353590326
S           6.04501215988900   -4.40308700992633   11.44607432745790
C           4.54385802469538   -5.61667386577561   13.40448421240506
C           3.60472069203597   -6.37948082046260   14.11580613014021
O           3.65504275981734   -6.07430764679795   15.43517660225609
C           4.59402875159371   -5.13421019742266   15.61973115910709
C           5.16551402763763   -4.82048606470097   14.40537671406428
F           6.12966235316343   -3.92966241372428   14.20838359942637
C           4.86817931530115   -4.61615880606747   16.89838001908790
N           5.10507039871131   -4.17277812353803   17.92717742096262
C           2.61133323222605   -7.37218278198845   13.75862685611017
O           2.37327238305958   -7.79460681694482   12.65466969165633
H           6.57736615433623    0.16169700385978   -7.69201209373163
H          10.77989802375317    2.30301843564495   -3.57251975913835
H          10.40270431366473   -0.23774159058185    2.04442438359978
H           5.60909527611061   -5.68851488986401    5.44277200010006
H           3.60103493523785   -7.10660774617680   11.14169721251051
H           2.05944534272234   -7.72128795629366   14.64922376399424
