99
 SCF done       -192.582571704344          0.000317015548
C           2.63957827521618  -10.82424712524778    2.54967538646812
O           2.64477693702752  -11.80220462918094    3.24414147072637
N           3.64371004456558  -10.55125374919212    1.63066815385796
C           4.84199046716717  -11.22981597482780    1.57087261129776
N           5.57077748239268  -10.83716279407652    0.58383256053730
C           4.85021065854375   -9.86545579342358   -0.05987649853886
C           3.66259662366614   -9.67040996665786    0.56304750929905
N           1.59480130437796   -9.89319926223867    2.55575660908662
C           0.25945303180457  -10.24409930529302    2.52725020662529
C          -0.43728399137090   -9.07838541687427    2.45455133707664
N           0.41153438978792   -8.01959564045832    2.48352876914367
C           1.62269123900874   -8.50412046212767    2.55237193939266
C           2.79936999720035   -7.70946252337782    2.74103346360320
C           3.96518876110605   -8.02154610947736    3.39932941410440
C           4.85182612760119   -6.93687945255908    3.49648851093472
C           6.10796997340235   -6.93992686282469    4.25876241795196
C           7.11491956580722   -7.86868575998418    3.93552954716488
C           8.35576498808150   -7.78641902279065    4.55643173047355
C           8.60610107456557   -6.78390474768680    5.47710169265767
C           7.61662519062971   -5.89139446805282    5.83151355935036
C           6.35787618216682   -5.97815889418907    5.24364994872409
O           5.44237813616415   -5.04082250517827    5.65414439645868
C           4.12166117152317   -5.45728822278703    5.94493048291954
O           6.80110668978032   -8.78212007949227    2.98320702892361
C           7.85242560144444   -9.55173340353262    2.43435292006180
C           4.36093576330282   -5.79923826235490    2.87466124683612
S           2.77504088403682   -6.05674604640465    2.22516923064190
C           4.97225183249930   -4.49913457775294    2.82909419613942
C           6.35635719803294   -4.30826164072296    2.69595272443368
C           6.96001253620242   -3.01859667290832    2.87496246624543
N           8.30571736381773   -2.91869480945932    2.87526093769724
C           9.02394658301352   -3.96545746074311    2.64659135784181
C           8.41403823525228   -5.21108206048328    2.33284104861532
N           7.13528257589348   -5.36634770893872    2.36962892081807
F           9.15851452103808   -6.25582201117857    1.96433240941309
F          10.34744485419914   -3.84614198413407    2.69651309661625
C           6.20807690490469   -1.84071464044342    3.07072863242872
C           4.80602964079396   -2.01793906832059    3.09879401951972
C           4.20812466370738   -3.33048235293473    2.99315199836038
N           2.87812108941319   -3.28307389078254    3.10513246235367
S           2.42519142705568   -1.75964157896666    3.29646933249109
N           3.87425202792260   -1.07522759845087    3.26184117985018
C           6.83415417689031   -0.57285351291091    3.25415781036483
C           6.20836317830917    0.64597119640022    3.44218201209294
C           7.10048030609232    1.70841590686033    3.60728218572093
C           6.74935602555969    3.11836932858786    3.80487059561373
C           5.85869897104214    3.46728152453700    4.83559041742613
C           5.61501746844965    4.80484625870799    5.11860391550377
C           6.25351264203690    5.79386687938796    4.39045667948168
C           7.10229833800106    5.46714512026450    3.35385885425480
C           7.34245634687769    4.13228382750319    3.05010124727251
O           8.19680906268560    3.88663638553292    1.99213140422768
C           7.72625176275146    3.03131847038972    0.96694726258486
O           5.30476598043442    2.42612628580095    5.50988177127076
C           4.47537421368381    2.69756641053416    6.61264078008252
C           8.42276316272645    1.29040571801805    3.54006022586399
S           8.56449754273894   -0.40560492507884    3.25454309700561
C           9.54164807091851    2.15952025414786    3.78685987487087
N           9.62363191658321    2.97151458671206    4.80135609776528
C          10.78246151714468    3.66843008010567    4.65715184964310
C          11.41040296992418    3.30782897436059    3.50882573871973
N          10.63052190401446    2.32205280465409    2.93494468190226
C          10.79876210687269    1.72370520024874    1.69302812296486
O          10.50515601815256    0.58410033707428    1.45351033064105
N          11.33399442239975    2.57009981807556    0.72234441535633
C          11.99098824054248    2.14849357675244   -0.41232913421106
N          12.32726146675458    3.13570943143984   -1.17088025423027
C          11.86062759671839    4.26507320039377   -0.55374743643980
C          11.25120461940517    3.94689023616258    0.61638439141241
H           5.10015008223323  -11.98323482792691    2.28702897783795
H           5.24362461400005   -9.37898912366611   -0.92899812548342
H           2.84355150430099   -9.02291750502640    0.33146905300242
H          -0.04071128466494  -11.27089853805430    2.53242665718405
H          -1.49596033858372   -8.92975394965055    2.39262725529718
H           4.16738825509863   -8.97776303191193    3.84944062725192
H           9.14037604957798   -8.48219279899942    4.31056925021857
H           9.58227008570077   -6.71249642552239    5.93222121985434
H           7.78996865584735   -5.11654640907340    6.56081122641803
H           4.05579984880545   -6.54012545654171    6.06129469646636
H           3.42524336225417   -5.13448479475178    5.16589523458023
H           3.84365930677153   -4.97849674537426    6.88655599856288
H           8.24902267517489  -10.26277639250065    3.16605183945086
H           8.65786667925100   -8.90987738042045    2.06955362402010
H           7.41237266744039  -10.09916037915447    1.60147119037938
H           5.14045038790646    0.75153480193022    3.45492913121781
H           4.94245995597679    5.08731964117842    5.91214817656691
H           6.07034895602732    6.83058839929221    4.62849603711929
H           7.58927610547792    6.22846738359014    2.76569444798194
H           6.63734473882485    3.06172510303805    0.89450520254244
H           8.03983916803462    1.99413811915974    1.12051831149074
H           8.15995981741058    3.40005142092743    0.03549860175842
H           5.00416443782689    3.26498811713157    7.38458309824715
H           4.19333676852127    1.72421334475963    7.01110435412301
H           3.57202206000109    3.24050624313949    6.31493140724659
H          11.08385981762621    4.38401754844770    5.39497999675586
H          12.34248923206864    3.61343521031596    3.08004249422143
H          12.19932854538815    1.11343970071861   -0.59223573995219
H          12.00120381666519    5.22878438895864   -0.99975924051939
H          10.72819597807817    4.54192549844359    1.33570762964307
