87
 SCF done       -186.719857709571          0.000739993556
C          -9.14175037783806  -14.56911586723442    1.08175036330855
O          -8.49619741057525  -13.95819862338507    0.27752337268421
N         -10.51340743452468  -14.42357590852902    1.21476707103725
C         -11.32539303970452  -13.79736641428873    0.28670505159047
N         -12.55445781238364  -13.76747203621400    0.66524047178460
C         -12.59237471634729  -14.36588859260214    1.89711653420009
C         -11.35336728799077  -14.78248821432498    2.25710879432493
N          -8.58056964114665  -15.51207004238285    1.95671508759979
C          -9.06846285898343  -16.78854741693607    2.17786157040979
C          -8.10231267641927  -17.45534459939342    2.86577509576971
N          -7.04268477632986  -16.64187006809750    3.09486579118440
C          -7.32011512241877  -15.48981239415909    2.54081881684304
C          -6.45919817735955  -14.35485476870368    2.62855085664249
C          -6.73068426002214  -13.01305840773847    2.46114523750742
C          -5.59982982594351  -12.22975221355435    2.69350688152575
C          -4.46746991568510  -12.99023593326779    3.04409523528911
S          -4.80072808300258  -14.66377196543614    3.09442704079059
C          -3.37953729592218  -12.10804604191875    3.26241460183236
C          -3.83120406725197  -10.78857124830952    3.04592068693117
C          -5.23963137873072  -10.82386015161742    2.68258362714173
C          -6.05131534439986   -9.76379930521293    2.40150405074963
C          -7.41828697856020   -9.93173662569259    2.09451075919770
N          -8.53297043244561  -10.06633018169753    1.86127521228707
C          -5.58459934710234   -8.43243583746190    2.41606725173044
N          -5.21501778200095   -7.34699668578523    2.42678933769716
C          -2.84200699936864   -9.83938644123087    3.25313093456990
C          -1.63492382529782  -10.42124082169700    3.62657859401842
S          -1.73130601826799  -12.17363547086297    3.71194777991235
C          -0.43267981440583   -9.74236726730128    3.94478019312830
C           0.73280402271683  -10.45089881987863    4.32147587784925
C           1.96808475972417   -9.80746712297729    4.70094306192348
N           3.02881187867799  -10.56824810787414    5.00711013738916
C           2.93015201165574  -11.87422436148661    4.97932409695686
C           1.69206685773305  -12.51186715529074    4.64244500957340
N           0.64947292088240  -11.78600548258948    4.32323366973217
C           1.57969942240672  -13.92383628831303    4.64284250547654
N           1.51673082581309  -15.06736590079297    4.65122940761411
C           4.06631913731672  -12.67178166288978    5.27247212655349
N           4.95083618716041  -13.36581110557901    5.48871095533792
C           2.07437749479403   -8.39391031599400    4.74456743824750
C           0.92052561789815   -7.69041753901379    4.32878863769944
C          -0.30646598105137   -8.33517677153228    3.93366328450622
N          -1.23819419046245   -7.44338140059684    3.59428193020619
S          -0.64830556141882   -5.96288996455277    3.74857700919535
N           0.82162714425810   -6.36254075219267    4.25911935469105
C           3.22375677928694   -7.68539455869410    5.18545206426568
C           4.41621747662780   -8.19376597059901    5.68941270689202
C           5.29767120259469   -7.18734663939559    6.05785743202414
C           4.78148816413395   -5.89431078620351    5.83114184139251
S           3.21023084665199   -5.92457850624034    5.16847626464637
C           5.74679584239515   -4.94653048062540    6.25325620627018
C           6.86920473697241   -5.63869428707848    6.74505610011418
C           6.62312109217936   -7.06644270872162    6.64796888682135
C           7.44578901638850   -8.07526525557713    7.05454182093098
C           7.08544458836402   -9.43464571359032    6.93164215124976
N           6.79306519305180  -10.53933444005848    6.84455661988333
C           8.69715671948594   -7.81966606229645    7.65451270685566
N           9.70329121932498   -7.60734759052644    8.16213338152837
C           7.87957180006345   -4.78665982243832    7.19371919881740
C           7.52919821894526   -3.46188125120086    7.04162680029735
S           5.93358476090127   -3.25235445018943    6.35361644935787
C           8.22122722727574   -2.27007500285010    7.41269992301249
N           7.62065021410969   -1.11895985487644    7.57461837480092
C           8.56338205947754   -0.23705326206528    7.98842707681263
C           9.76793870086665   -0.85741428513864    8.11019561095721
N           9.56769157909299   -2.17646171110858    7.74055769699282
C          10.58314015752208   -3.11264845635365    7.49193128191138
O          10.60162751619188   -3.81448992605134    6.52050379870025
N          11.57638368115448   -3.13453893096128    8.45805635964843
C          12.81863717746846   -3.71851525858793    8.29017884193256
N          13.54167657934167   -3.62429710847652    9.34996327698887
C          12.77307668899418   -2.98186704868458   10.28453918411718
C          11.56285005579561   -2.66482444116334    9.76194964727763
H         -10.93405586811185  -13.41084458290394   -0.63212209800472
H         -13.51480086436508  -14.45163298315928    2.43473814628837
H         -10.99547262510458  -15.25451375143376    3.14812432897928
H         -10.01433767050544  -17.10808575842848    1.79209281709742
H          -8.10348318439975  -18.46717392590885    3.21661466000682
H          -7.69237278779096  -12.61805178213151    2.19275232242328
H          -2.95483406800465   -8.77568048331455    3.15145798406214
H           4.60042445199835   -9.24860215577844    5.77245780175515
H           8.81001304614601   -5.12273405809100    7.61096737668046
H           8.31196752494503    0.78652344020025    8.17836519149603
H          10.73576833721332   -0.48313569144710    8.37230341249198
H          13.10675550438075   -4.17049605307495    7.36308482774860
H          13.15163711372374   -2.79524019873916   11.26896495339231
H          10.70434194768043   -2.19606590922916   10.19564576647895
