91
 SCF done       -176.513330783667          0.000695448631
C          -5.86907353428700  -17.32216952057783    2.62056659887570
O          -5.07362443137040  -16.95411087121012    3.44109281966154
N          -5.70472567299108  -18.50921038225462    1.91144487483027
C          -4.87429404038695  -19.53959391400306    2.29961052193451
N          -4.86672196365545  -20.50305014001887    1.44386873862418
C          -5.69352448967883  -20.11453837880395    0.42443602118948
C          -6.22611349835059  -18.89479711112033    0.68859164257777
N          -7.03695631689414  -16.62982865283919    2.31159145429731
C          -8.27948356237986  -17.20974955096126    2.09793334507225
C          -9.17256423463852  -16.18823760019572    2.03963541835498
N          -8.54182056821929  -14.99651551397885    2.18628003439401
C          -7.26881750691099  -15.25539414140154    2.36613972142359
C          -6.29691946226087  -14.22193910833188    2.48786036811902
C          -6.64161991711024  -12.87690217683867    2.54431078108567
C          -5.52946410059179  -12.05364664514308    2.58829137424847
C          -4.32911455871610  -12.76962268695484    2.55281237084741
S          -4.56956983357614  -14.46622563433318    2.49254468468105
C          -3.24559292970429  -11.86668646617774    2.57932951139366
C          -3.75190975281736  -10.56118249180841    2.63634356799782
C          -5.26327176946669  -10.56781245870196    2.65460872887075
C          -5.83899891695115   -9.84305695560715    1.43523692189021
C          -5.80870295576184   -9.96286530168561    3.95094496429523
C          -2.75607998238593   -9.60492561411298    2.65034641877517
C          -1.47960776049533  -10.16475641019204    2.60000340524659
S          -1.53078712596693  -11.91557904668037    2.54251078427671
C          -0.24243390468018   -9.47148549212709    2.57015931307798
C           0.99095525275879  -10.15617301947186    2.48761223083648
C           2.25152151989787   -9.47685404174494    2.40577029271672
N           3.38316095978001  -10.20212521821891    2.32059029736143
C           3.32262270428020  -11.49444526333331    2.31374819644035
C           2.07724537067358  -12.16557778214315    2.39359298923259
N           0.96922405880014  -11.50263053911347    2.47615801507773
F           2.01032538619353  -13.49512894119566    2.38627426705269
F           4.46505700769415  -12.17276609962357    2.23044660128969
C           2.36139477655695   -8.06811354445950    2.40223744913394
C           1.13211650461020   -7.37187275479796    2.51983653867775
C          -0.14096678322300   -8.05781523191971    2.60057548235652
N          -1.15434008240581   -7.19806598669243    2.69833996351268
S          -0.58361792710611   -5.69669228720005    2.69290786132792
N           0.97802685611220   -6.04889977654353    2.56310838486627
C           3.61491231572691   -7.41768536257483    2.26543203106239
C           3.84986209138993   -6.04355801259491    2.23437331117415
C           5.18406350614410   -5.74158692254634    2.04492098223669
C           5.98582662079876   -6.88451280101337    1.93233860200062
S           5.09096957493273   -8.34180379377804    2.06762364705230
C           7.32194444334426   -6.48211387333754    1.71553452724193
C           7.38114053554900   -5.08605793938605    1.68619493712252
C           6.01310280354866   -4.48495423635544    1.91141997416393
C           5.56527591272018   -3.64300114545798    0.71393623347879
C           5.97695128760811   -3.65561938901216    3.19842815808792
C           8.66206410441500   -4.60240688327972    1.45877234759118
C           9.58235271184736   -5.62639975033187    1.31493426116726
S           8.85428896614373   -7.21201372643237    1.47564049002116
C          10.98661465572145   -5.64793009101085    1.07804891336976
N          11.66336496207548   -6.76535185261702    1.16044763335342
C          12.94710855268666   -6.48993693378952    0.82590795086480
C          13.07384905051648   -5.18082170259515    0.49020525848619
N          11.81717852002857   -4.60775685922169    0.64662461325812
C          11.54063402352984   -3.26169359106106    0.44711081381465
O          10.77938231209466   -2.61362207947309    1.11307694761852
N          12.24728290575867   -2.69753017411966   -0.61738339444732
C          12.73320980600194   -3.28868014982569   -1.76574999240324
N          13.22091024363571   -2.42033850765878   -2.58406773967033
C          13.06996924330672   -1.19874049404824   -1.98535148119824
C          12.45546837109187   -1.34067019970100   -0.78479094875711
H          -4.33231570998951  -19.50870897798521    3.22284867185773
H          -5.84456589835636  -20.74505490490146   -0.42822421304098
H          -6.87746220731415  -18.26610951843808    0.11786299197764
H          -8.41198509577907  -18.27110377938352    2.06496712278452
H         -10.23325775539078  -16.23269192919421    1.89513448296056
H          -7.66979663938211  -12.56718883473844    2.54650308309027
H          -5.56718272972213   -8.79095875587004    1.46511656260521
H          -6.92267584562659   -9.92872838572280    1.42793574153245
H          -5.44834191124413  -10.27865681453603    0.51854881525979
H          -5.39805170790995  -10.48435301145830    4.81225537831195
H          -6.89212119418416  -10.04859318833505    3.97504141690535
H          -5.53500843280414   -8.91284665064067    4.01554232610578
H          -2.90321805253001   -8.54210488787031    2.69055381015705
H           3.05212382804485   -5.33343645308565    2.34384839601390
H           5.59144919433483   -4.23766935451233   -0.19636982753769
H           6.22482309904962   -2.78737868855442    0.59208505518660
H           4.54992448639114   -3.28673648041099    0.86864712612250
H           6.29196047550548   -4.26074944064899    4.04538508675801
H           4.96706383075671   -3.29710958703324    3.38177295454018
H           6.64519825492726   -2.80264088557582    3.11132547605004
H           8.92394080171727   -3.56223204401304    1.41872426050980
H          13.69673255180990   -7.25472549111119    0.84753671168008
H          13.92904065476586   -4.59929560750144    0.21494288571488
H          12.67036014891937   -4.34174147569487   -1.95344771431526
H          13.41305425042870   -0.30729581094243   -2.46927459817099
H          12.16003126827833   -0.64062981719448   -0.03203303611893
