67
 SCF done       -129.509079806313          0.000444267876
C           4.48555957313689   -0.41774302357328   -0.79870902239046
O           4.63133062147675   -1.44596129165340   -1.40374134394135
N           5.56854055462294    0.26700330669060   -0.24933035707069
C           6.88301805884452    0.04652340073621   -0.60248128538842
N           7.69788007276622    0.76206232677538    0.09356127577821
C           6.92527849371618    1.47853522190542    0.96713684166879
C           5.61210753342193    1.19659305113512    0.77478741653922
N           3.25355123462706    0.18920722558434   -0.59128710912615
C           2.95262001256964    1.54111504398150   -0.64785541875147
C           1.60079538769450    1.62834798515336   -0.57096738956998
N           1.04888489026975    0.38754418771292   -0.45315617199765
C           2.02742826752524   -0.46573007660814   -0.47584324573190
C           1.91012692737153   -1.90972312480560   -0.40738707761608
C           0.96263030652239   -2.52763537625346   -1.17837742026205
C           0.88634008166423   -3.93015146473449   -1.25296742298623
C           1.75827879479971   -4.73646409116918   -0.56896269983062
C           2.74661887223643   -4.14890309265857    0.29153341349882
C           3.65917781409203   -4.82043108241079    1.06640460079972
Si          4.90461607958185   -3.52901313172113    1.57493578440544
C           3.60128372444207   -2.20945935151513    1.41755795290754
C           2.77491705951730   -2.68937764432667    0.42612183006897
C           1.66067625724813   -6.17712607134842   -0.72514354171673
C           1.63542675751514   -7.17654528818879    0.21173448913777
F           1.68101580868695   -6.97115305575789    1.53731645407293
C           1.49327320953427   -8.46989672396210   -0.33754565289490
F           1.49736130627194   -9.57558090230463    0.42852961273577
C           1.40833090832667   -8.49084954227144   -1.70497654300806
S           1.50210332063153   -6.86687958764994   -2.31187593394912
C           1.34415679257648   -9.62585864581491   -2.60696308448480
C           2.13439726438263   -9.64060909274654   -3.72646258274560
C           2.16920359433847  -10.75274501171260   -4.58749279530939
C           1.41387914634924  -11.86596302704269   -4.34247316950249
C           0.53572948507505  -11.90622259277095   -3.21135221194958
C          -0.33590916102997  -12.92085376592312   -2.88924753172974
Si         -0.85084467843568  -12.56636026098300   -1.13077045392495
C          -0.54183504108399  -10.75320918513922   -1.40438137375421
C           0.46361954004797  -10.72768831715242   -2.34268673865346
C           1.47501346952975  -12.97934422296745   -5.27604483187152
N           2.54510780229106  -13.61507461395927   -5.64699744845728
C           2.14436713975766  -14.58616399170508   -6.51632342772544
C           0.79547526484918  -14.56099165583526   -6.66631667135573
N           0.34211963143996  -13.52349306709347   -5.86958134023374
C          -0.93942596233325  -12.97685542565385   -5.81431975848000
O          -1.15434070799671  -11.79835618519611   -5.78038107677422
N          -1.96630315624778  -13.91977227299719   -5.81794614816405
C          -3.29007763511282  -13.62049040070081   -6.05748123306493
N          -4.04825026237416  -14.65773700306621   -5.95303288885624
C          -3.22559252661604  -15.69725982337345   -5.61201309976162
C          -1.94035615148864  -15.27138479566508   -5.52477438379105
H           7.14741444895246   -0.63639367587894   -1.38377282430640
H           7.37380897214251    2.14824525237895    1.67244106368321
H           4.73434410862318    1.53733165897433    1.28316152687748
H           3.70681653814847    2.28677724460639   -0.79187886100903
H           0.98167646822746    2.50242365631508   -0.58806500518834
H           0.28660775725560   -1.92624033933269   -1.76584151977072
H           0.13026579803220   -4.37808887722039   -1.88139341826667
H           3.80903939417286   -5.88277768856372    0.97708860461422
H           3.71607541117849   -1.14935829540079    1.58793538108189
H           2.76363655716912   -8.79021489876843   -3.94557756562916
H           2.80727102199216  -10.72730860501123   -5.45714035438652
H          -0.27742869332006  -13.88552589925082   -3.36993074272796
H          -0.67260210985923   -9.95072781377740   -0.69823315062952
H           2.85970099995306  -15.24129595378359   -6.97101045757177
H           0.13744142457825  -15.13016731279735   -7.28987388643285
H          -3.60477239054826  -12.62901584280559   -6.31183423339355
H          -3.62153507835143  -16.67996977628984   -5.45434033634901
H          -1.04228640544649  -15.78879730272103   -5.25880400528385
