81
 SCF done       -158.079370694026          0.000751447481
C           7.88875858659629   -2.00125023872568    0.50926191363750
O           7.64499296930791   -2.71641389838137   -0.42056615035305
N           9.16300885814925   -1.75818462624470    0.98862050396540
C           9.55563373026994   -1.14458978525868    2.15885855129922
N          10.83609538416299   -1.16154198022633    2.30443666677182
C          11.33844297173146   -1.81280281049859    1.20796243340836
C          10.32889751846210   -2.20117145490936    0.39154104390106
N           6.89286979603044   -1.21993303285087    1.13989385446384
C           6.87150645603083    0.15374755460887    1.22455396090986
C           5.60806883637066    0.49001334418057    1.61218247373861
N           4.85312789044614   -0.62351654662374    1.78302905065240
C           5.62601610353288   -1.64086011591182    1.48747620631015
C           5.31183553631445   -3.02561244493584    1.63114717162825
C           4.13204557166356   -3.69525580950614    1.61947636496467
C           4.37684127037370   -5.10815356594531    1.89171809436831
N           5.72495198547174   -5.27207880145104    2.05760821907993
C           6.35171756039402   -4.04345002905608    1.93520436528208
O           7.54258286127715   -3.86014262908413    2.08700994560273
C           6.45233805023124   -6.49579842305544    2.26049502024063
C           3.19671829364222   -5.77511100904648    1.83108211961527
C           2.15994293656774   -4.73811945021066    1.49350497625595
O           0.97339397852240   -4.89022017103811    1.33894315691930
N           2.80768386025325   -3.50863998942336    1.40606741237856
C           2.15888813941770   -2.26458991463998    1.08116590367713
C           2.80593043112054   -7.15001420783120    2.04629123738354
C           1.84592072192439   -7.74747462362514    1.24849182007747
C           1.42021430392155   -9.06427292010199    1.43739209860280
C           1.87772167556918   -9.85533076335109    2.47646022165908
C           2.83829401692961   -9.27141366739496    3.33993589800458
C           3.31761926662148   -7.93115678217281    3.11233139498035
N           4.21818888738974   -7.56647382599240    4.02425304030814
S           4.46244238845028   -8.78946476411886    5.04050950361788
N           3.43359854729770   -9.83833792296092    4.38816746825782
C           1.45477157792845  -11.23082261761063    2.60981086004036
C           1.17236909493059  -12.03176808298206    3.66897644068211
C           0.86747094536933  -13.37204201830656    3.17472037809721
N           0.97144827595818  -13.37988101846942    1.82483481007353
C           1.30322376833701  -12.09697569337899    1.39101223541980
O           1.43931195983427  -11.79221773339842    0.23230685367072
C           0.75891995376814  -14.50658039384443    0.95469708405781
C           0.57264442380163  -14.18098719644304    4.22077740999687
C           0.60071758024804  -13.30736144293218    5.43017569210400
O           0.28049370279687  -13.59064828613947    6.56298968972679
N           0.98708604892409  -12.03739852311086    5.02118306246570
C           1.04574482482772  -10.92175984834053    5.92648738730898
C           0.14516376323705  -15.54537637882103    4.26703994162021
N          -0.64915975882102  -16.13329752615592    3.41418226834050
C          -0.94800222828490  -17.35094776959668    3.94480326143654
C          -0.33873173063768  -17.50939442154603    5.14969586112991
N           0.39943632391164  -16.36231589441270    5.36397590294578
C           1.37330133878357  -16.08130343752456    6.32295468151821
O           2.29967067016057  -15.35339454194114    6.10584424833487
N           1.17668057009008  -16.69629080898088    7.57042431494012
C           1.03732338075946  -15.99744275833069    8.74368006398195
N           0.88886654220286  -16.78519863839315    9.75709088730941
C           0.96439552347105  -18.05376082114436    9.26984373868704
C           1.13010035561938  -18.02794393227254    7.91940326387325
H           8.86291746387920   -0.72966462188982    2.86275857285935
H          12.39413178980124   -1.95304647657961    1.09415496213732
H          10.30532158450011   -2.72811452616808   -0.53877910625048
H           7.72384155805466    0.75233029645921    0.97712673317471
H           5.19614650173614    1.46334399900518    1.78619179923021
H           6.22514850957663   -7.20533166468311    1.46314197202363
H           6.18836791721137   -6.93530660273886    3.22221572196072
H           7.51293665490917   -6.24813172742682    2.24291972873452
H           1.14253027347561   -2.29236043830564    1.47137817411779
H           2.11771473471824   -2.12611302556700   -0.00175697360436
H           2.72636974228277   -1.44680411059909    1.52590741965816
H           1.41957844473459   -7.17941633128329    0.43736675883516
H           0.69855715930074   -9.47623516362636    0.75056798716641
H          -0.01765430756309  -15.14219840631836    1.38104174260189
H           1.67833209672701  -15.08599103855354    0.84514299784556
H           0.46016435429685  -14.13079259465064   -0.02256209243035
H           0.70145253760381  -11.27468573156972    6.89789324737073
H           0.39946756484960  -10.11514384442972    5.57585705342625
H           2.06963346096931  -10.55724520428037    6.00486624419204
H          -1.59383937163884  -18.02883733070225    3.42413821062245
H          -0.36599963569191  -18.32010355128200    5.84512875339530
H           1.01261125791253  -14.92736489094652    8.75699263944725
H           0.89290728838368  -18.90136104825648    9.92077107604522
H           1.28774612826487  -18.81341087554272    7.20955009809866
