82
 SCF done       -173.029099784072          0.000388164678
C           5.79762914103419   -1.92304190713351    6.22737635022249
N           5.62207883436909   -1.46365691476375    4.88434556673070
N           5.81276837171257   -0.21168307974814    4.56458496038266
C           5.61529417687997   -0.17273007473018    3.23828301287011
C           5.63750386199666    0.90039882511617    2.31682142849833
C           5.94426917715333    2.25330969771511    2.67537217050225
C           6.68630535827791    2.71113171783355    3.71567564972249
C           6.54255378710053    4.11852786377215    4.17624626309884
O           6.01910778604646    5.03374161387677    3.58810490649253
C           7.12231022784221    4.13046850717609    5.54127262180217
C           7.14755169311475    5.16366791241575    6.45771091399270
C           7.73591009081562    4.91951211630083    7.68840053236986
F           7.77874386458526    5.89171564012997    8.60739433178510
C           8.28366700685909    3.66968729889975    7.98226294691328
F           8.83569152752412    3.46108048633099    9.18320432881107
C           8.26915592962484    2.63458368593740    7.06017033405072
C           7.67940287103916    2.87059715202403    5.82844677403790
C           7.54973664097712    2.02053071457432    4.64990324646852
C           8.27070298236270    0.88835516083377    4.38568562453251
C           8.36586890454566    0.33965235973374    3.08733078496926
N           8.51734044886578   -0.07367287294002    2.02859604534000
C           9.00289985798825    0.17462325715466    5.35185908340699
N           9.53970275775652   -0.48503334192784    6.12354729930096
C           5.28400187829489    0.57150808570700    1.01248446367697
C           5.01092049448015   -0.73288116730097    0.60356733181655
C           5.02635008051554   -1.80644415994125    1.47781069967202
C           4.76667213171397   -3.17060319898871    1.04576624843712
C           3.80999168452782   -3.49625546127933    0.12160629753344
S           3.69466009500922   -5.17657223445843   -0.15194243214225
C           4.97833108652035   -5.49291147953765    0.97710834884155
C           5.45491464756419   -6.84266894173326    1.13694450962341
C           4.63114228080718   -7.94911559606140    0.98175377205579
C           5.09802221712712   -9.25162545121834    1.11645001392354
C           6.43449655544565   -9.56729482004970    1.35800460413035
C           6.83057529190278  -10.93748132442659    1.46282353980688
C           8.05196361058545  -11.51628626324257    1.32967776855929
C           8.27112460584969  -12.88306523504336    1.88024145076402
O           7.42804888002028  -13.67287438610597    2.23108875611032
C           9.74304623526242  -13.03183951816706    1.95599506851151
C          10.47759764991419  -14.06857525464218    2.49775223778052
C          11.85886326355364  -13.96117296392005    2.47222872145190
F          12.60956044650829  -14.94074279247990    2.98961343783471
C          12.47685027040301  -12.84031091894623    1.91509490198820
F          13.81184090015408  -12.75950271334843    1.91630903133189
C          11.74113166972175  -11.80410517730765    1.36029218565665
C          10.35911506043911  -11.90413894901579    1.38317780429728
C           9.32380259098087  -11.02052346447665    0.85323217645328
C           9.50971690523209  -10.04405172627593   -0.08649536319464
C           8.45072056839520   -9.45459455138029   -0.80930478077254
N           7.62700428769457   -8.98144718502857   -1.45259675455770
C          10.77016477513798   -9.54315020255547   -0.46568612996126
N          11.76488448748918   -9.05088087126355   -0.75913548421466
C           7.29650372514351   -8.45787965540144    1.52309110265645
N           8.61082753802094   -8.37295101311832    1.78278735162782
N           8.85836031367634   -7.08914809834950    1.79601406740560
C          10.17556363573187   -6.57273106800571    2.00442502979095
N           7.85099577215556   -6.30004139765794    1.58562911580646
C           6.80657884385949   -7.12232192548944    1.41363861648418
C           5.43930815226725   -4.32568783430716    1.54208857386692
C           6.50612501593579   -4.25676088833570    2.56951999422146
O           7.44510092337908   -3.50846580057358    2.55206512865853
O           6.28404875535344   -5.12078111130874    3.57204442499442
C           5.29781247175215   -1.49916328373142    2.82276199625205
N           5.31124502625321   -2.27466191473688    3.91854546525182
H           5.33018547098196   -1.21854099515982    6.91380851164992
H           6.86303459757930   -1.98663704913847    6.46096971152350
H           5.34074474781929   -2.90622429864356    6.31413843181508
H           5.46929087178512    3.02083901402247    2.07205258810428
H           6.72714719552315    6.13021451110501    6.22973152189805
H           8.70431168815122    1.68519780700768    7.32731442931135
H           5.27370784860898    1.35682281268576    0.27112872953557
H           4.80906302693220   -0.91504949922013   -0.44095594936606
H           3.14198822812503   -2.82859120349524   -0.38591875972492
H           3.58620959708877   -7.79027603591668    0.75930884854739
H           4.39794317558883  -10.06390727950330    0.98761141827132
H           6.03928072932645  -11.62371239946114    1.75176034305144
H           9.99933002505918  -14.93448727072143    2.92711891028720
H          12.26036112431425  -10.95743651617940    0.94144046961949
H          10.58290783323234   -6.96387154848152    2.93677202191596
H          10.10349147877412   -5.48766447562462    2.04150253535155
H          10.82805040405992   -6.87551528061277    1.18350510968047
H           6.99049183386729   -5.03436419788182    4.23091265976640
