93
 SCF done       -216.765699857662          0.000510805105
C           5.48695543724763    1.48619691769828   -4.72285337451802
C           5.83391122709196    1.34209054271307   -6.05832030942949
F           5.77814765965810    2.41009567679919   -6.85915349618372
C           6.23737048086103    0.11351900129537   -6.58395463163384
F           6.56314121426428    0.02152019550611   -7.87750421408073
C           6.30246931293696   -1.01130660975213   -5.77782255870614
C           5.95538604452078   -0.86666507916125   -4.44892617796328
C           5.54942111828746    0.36579761316122   -3.90902617743682
C           5.25785470625479    0.18559529848382   -2.48572756293496
C           4.88270605782929    1.18307161459161   -1.62659541315033
C           4.70488669219088    2.53102683518330   -2.00952595357387
N           4.54108418257348    3.63945953364084   -2.25570769398103
C           4.63342900315959    1.03263155873046   -0.24470698095082
N           4.42321482262948    0.99831453693750    0.88327609581187
C           5.47106390487095   -1.21687323212245   -2.17583581982643
C           5.93442185007908   -1.89429656689117   -3.39062652683443
O           6.23809113238238   -3.06670049658226   -3.51827714331996
C           5.24394423634860   -1.81895728702596   -0.96334727160147
C           5.42847058116565   -3.14866939963236   -0.55875941776005
C           5.11230837290873   -3.56936726670154    0.74163962495407
C           5.38655836317413   -4.90531709493384    0.94650411161346
C           5.92843244745503   -5.52633032861904   -0.20849510139362
S           6.07825028129394   -4.46708596393364   -1.53386866286920
C           6.19018236222144   -6.87936512256595    0.10109512856039
C           5.81737001876076   -7.11978273665880    1.44310682356233
C           5.30020075113461   -5.88818767592821    2.01619896531679
C           4.84024441652989   -5.69281615294180    3.28410487917809
C           4.81852845226588   -6.72309205871407    4.24951037692543
N           4.80338154674947   -7.54772536479882    5.04521521054786
C           4.35451080097147   -4.44137704478440    3.72124247157343
N           3.95640237523796   -3.42783482564856    4.07897403393636
C           6.04914953063983   -8.42756996892315    1.84249131455334
C           6.60314366319590   -9.19473560156428    0.82242488571930
S           6.83294882220433   -8.26897304729130   -0.65512147041596
C           7.00248100967799  -10.55902605266329    0.86008227213403
C           6.83686597911229  -11.41614254343517    1.97630172584859
C           7.32356158675521  -12.76601933739953    1.96188030341391
N           7.15501475494347  -13.54488775651842    3.05001819936320
C           6.54924992393320  -13.07729229275007    4.09178410197990
C           6.05435566980190  -11.74514682555172    4.10098573074796
N           6.20473039848193  -10.96590247840355    3.08053259285513
F           5.41566465031496  -11.26691187993507    5.15871670999111
F           6.40033332037477  -13.87867302835459    5.13823028242236
C           7.98571264908990  -13.34499184533382    0.85494450529969
C           8.11274673526705  -12.50705393593663   -0.27643970092534
C           7.62869426821674  -11.14968469331930   -0.26146208813337
N           7.85626928002298  -10.53440115359769   -1.42291476194796
S           8.59369938970717  -11.54615419979425   -2.42703799553926
N           8.66822127461904  -12.81131550543605   -1.45093114018825
C           8.49586328041578  -14.66900276077239    0.89996083799459
C           9.15893310534283  -15.33364959869410   -0.12809710891076
C           9.55990750607155  -16.60520289947602    0.25045298680377
C           9.20211726424716  -16.91627185154517    1.58122087057118
S           8.36251311046576  -15.64155405096133    2.35210772554347
C           9.67732691948541  -18.21375062165537    1.87112856394341
C          10.32508951407049  -18.73389661726247    0.72764698654061
C          10.26927386832747  -17.73608825611099   -0.32760778543445
C          10.77390836890917  -17.83427116030094   -1.59045211102339
C          11.43686043827670  -18.99423932087916   -2.04584703824569
N          11.96912543330093  -19.93755362165611   -2.42100113015720
C          10.65977341425807  -16.78512775958945   -2.52791341808687
N          10.56523458033178  -15.93814327717434   -3.29464976802217
C          10.82179025001133  -20.01465566895093    0.92698495560887
C          10.60437513236615  -20.46928463587362    2.22175144213284
S           9.70612090305642  -19.29477824425375    3.18383115232318
C          10.95762830491364  -21.74540146094085    2.71202976534391
C          11.05773287941591  -22.18728512307342    3.99658413079593
C          10.97024557625510  -23.64720498299599    4.27578716241682
O          11.04263794581466  -24.54616256655321    3.47388841417362
C          10.71341789671431  -23.74090535608440    5.73124631887889
C          10.78229379469339  -22.45848170959572    6.30518595478059
C          10.54768296638620  -22.28692903924779    7.65957180748946
C          10.25005686835158  -23.41248551634603    8.41345013814728
C          10.19579844255620  -24.68463307009231    7.84008216750235
C          10.42779750415326  -24.86230967694732    6.48541757121939
F           9.91300413217103  -25.74228715649026    8.60734601983931
F          10.00648603941648  -23.27199189637797    9.71942466901631
C          11.15281364858691  -21.49848422448292    5.26603349230696
C          11.75855838136855  -20.29065451178259    5.48806267319940
C          12.37572686897037  -19.53724597243997    4.46723072609918
N          12.92374337515412  -18.92191367216520    3.66836751409090
C          11.92133555718261  -19.71573897963780    6.76576866076224
N          12.05947331351947  -19.20049535493485    7.78123617197464
H           5.18168478610644    2.45709193471923   -4.36910662967639
H           6.61316035335267   -1.96271420253210   -6.17914432824556
H           4.85562087177932   -1.18969785454661   -0.17161651566525
H           4.70483818887974   -2.89750730741454    1.47641355727549
H           5.84130659886984   -8.83232760418266    2.81478906091457
H           9.32518777728574  -14.87766107664586   -1.08661908666322
H          11.34945647261715  -20.59710686675423    0.19327854433083
H          11.09591806422957  -22.51012727484856    1.95278536012092
H          10.57584371176071  -21.32386380506171    8.14303624905470
H          10.38604382541485  -25.84452221106297    6.04230456691828
