85
 SCF done       -177.190021840486          0.000475183954
C           2.34113794264285   -3.80556339857510   -4.28758082149358
C           3.16465977620338   -2.97044827360125   -3.53053757733893
N           4.39447204173388   -2.55285933330197   -4.13599453493173
O           4.52440207046573   -2.74103281944263   -5.32959142177254
O           5.24357090293155   -2.03916344356717   -3.43307775777765
C           2.78205554360891   -2.57998674025006   -2.23797422098810
C           3.61158575016447   -1.67243051202807   -1.36106800149593
O           2.94360717156013   -1.24553967285047   -0.20350078047061
C           1.57584232189218   -3.05488930782007   -1.74899830159408
C           0.74350062418989   -3.89520665760691   -2.49353339704305
C           1.15113777123222   -4.26523151924929   -3.78231664428023
C          -0.50408106546548   -4.36873095506279   -1.95166362381798
C          -1.16422376283695   -3.93528712238726   -0.81996234647353
C          -2.36448598895932   -4.61731474181194   -0.61245674581376
C          -2.61610543954908   -5.59229852982375   -1.59472013640560
S          -1.38620595912654   -5.65239698311335   -2.77137850175182
C          -3.84925436987593   -6.22961549130029   -1.31011489764769
C          -4.37873019863201   -5.64753349999040   -0.14074762726286
C          -3.46666033068904   -4.61769536640820    0.33382548008415
C          -3.62152603193232   -3.81516696193059    1.42615546715389
C          -4.74360033789381   -3.90709140949726    2.27651537398587
N          -5.65125357807104   -3.97414134738392    2.97395550313311
C          -2.67020854444188   -2.83150033409000    1.76842704393927
N          -1.89848990586691   -2.02688333072268    2.03705513125089
C          -5.60325025033742   -6.19092242214758    0.22204720831771
C          -6.01022248962343   -7.18524222436754   -0.65930815541074
S          -4.85768187096282   -7.45704332589470   -1.95283280326127
C          -7.21373580311796   -7.93174007902694   -0.60240094625094
C          -7.49271435508902   -8.93173975446952   -1.56541679577090
C          -8.70075773170715   -9.70349830283122   -1.57451865661823
N          -8.87222293445696  -10.63495094271980   -2.53281847673927
C          -7.94074526990274  -10.81116539825048   -3.42733926811054
C          -6.75530750155850  -10.04894016928990   -3.42111161516062
N          -6.55595143880910   -9.14081667350666   -2.50813604501324
C          -9.71163141957207   -9.49320368067502   -0.59918989796407
C          -9.42846215017023   -8.50299779879839    0.36495445226511
C          -8.20825889302069   -7.73515883034870    0.37784086201574
N          -8.18928657571216   -6.86663770622192    1.39160843306799
S          -9.54345957701691   -6.99583138235782    2.23404390749553
N         -10.23821297977324   -8.15604253233741    1.36830412122091
C         -10.94597725925927  -10.19680322073353   -0.56190020332490
C         -11.38347922131694  -11.21137244861249   -1.40455283290447
C         -12.65747117280826  -11.65137928299699   -1.07366413731679
C         -13.20466777148012  -10.96772233038351    0.03062319956967
S         -12.14049540919324   -9.79099703558794    0.66384716456733
C         -14.50069710458536  -11.48601586100487    0.27157336546624
C         -14.77213066583999  -12.49416965257411   -0.67179730145647
C         -13.62070967261382  -12.63481987350212   -1.54600441632297
C         -13.46917219255693  -13.50656283137322   -2.58442017505127
C         -14.47880576372685  -14.42616398686145   -2.93830453187984
N         -15.29970184167612  -15.17548555302763   -3.22029661921903
C         -12.29588924837830  -13.55154909874187   -3.36675747898143
N         -11.34667028170466  -13.59645601035897   -4.00838997841368
C         -16.03810652225505  -13.05905319162707   -0.51216448991664
C         -16.73728689268216  -12.49636554012699    0.53685867088441
S         -15.80139448692929  -11.23985694051122    1.34243507720095
C         -18.06326004851739  -12.81159673110182    0.99888465972316
C         -18.65521503912098  -12.07326270358557    2.03325784197693
C         -19.92224284290625  -12.37657381824946    2.46139836366102
C         -20.64649415480269  -13.41470226153934    1.87130725900612
C         -20.07977912169475  -14.18018509464130    0.83972820780132
C         -18.79692801907125  -13.85924161810310    0.43026063424918
C         -20.79169290542903  -15.32616070667124    0.14960563469427
O         -21.77414573924800  -14.88470980370660   -0.74716886192453
N         -21.96194991021505  -13.64667356057828    2.38724425537991
O         -22.23697481440522  -13.16408444934147    3.46641071832903
O         -22.74390427816035  -14.30718860684475    1.72470205351654
H           2.66794059929374   -4.08256830761195   -5.27829557618341
H           3.97968912331671   -0.81783628426338   -1.94371578461695
H           4.49237543327958   -2.22238738596867   -1.01406447879335
H           2.26109070641950   -0.60843062413577   -0.44192892582104
H           1.29997635524487   -2.77870991340295   -0.74339087335119
H           0.52570328756038   -4.91179774249518   -4.37887698396877
H          -0.80049995803019   -3.15099682016443   -0.18229178923528
H          -6.19672836401380   -5.90412061000900    1.07053969936161
H          -8.12617956995196  -11.57217103864159   -4.17221525733801
H          -5.97733057972485  -10.18471682859720   -4.15849698950719
H         -10.77428592756233  -11.58066717648356   -2.20808891597398
H         -16.42970743106094  -13.83741282829842   -1.14022062907151
H         -18.11365797879904  -11.25934656644121    2.49101784820783
H         -20.38923449056850  -11.81365581815028    3.25536514450222
H         -18.35688376749859  -14.44675842996915   -0.35913642404774
H         -21.22135956291107  -16.00316358277847    0.90126907376794
H         -20.06699226470360  -15.88514214948362   -0.44758566939200
H         -22.53854839212956  -14.59879670564784   -0.22362253313643
