86
 SCF done       -157.503356366583          0.000579331659
C           6.50739537061591    3.70629291748482   -0.46706219807286
O           6.69739493299781    5.03147752471621    0.00225718009891
C           5.65261864083899    5.59945784491581    0.68962705242529
C           5.19087533002007    6.85342749233501    0.26620382890315
C           5.78249254208841    7.53216409362285   -0.89578495099677
C           5.96454851845482    6.87757094776840   -2.11373247388065
C           6.50182744446037    7.55609550425078   -3.18225275591368
C           6.87882954964134    8.89322048460551   -3.05965643925197
N           7.43353210077133    9.50939165459301   -4.23048635901122
O           7.21183274691304    8.98473375809677   -5.30095736828608
O           8.10050546506291   10.52044768645498   -4.09823203700704
C           6.69855488681213    9.57977600820482   -1.85091089444365
C           7.07253645159442   11.03233374574806   -1.63920857120113
O           8.45398184925383   11.21546034563545   -1.48352227660439
C           6.14552047404925    8.87265337211436   -0.79326822336574
C           4.15469699731106    7.46331859319569    0.96847728070584
C           3.55542741762478    6.84007026819204    2.03801344580057
C           4.02004076999583    5.60620899489626    2.50221097983580
C           3.41047198526114    4.95695283306090    3.64014656650633
C           2.33936752690990    5.40146623484128    4.38805448546150
C           1.98137573331799    4.53040387054642    5.41597858100403
C           2.76362001584458    3.39838371139295    5.46269182527397
C           2.63071740619899    2.33098238151094    6.45038641315517
O           1.86759605962139    2.43538659891289    7.39400511522499
C           3.46183347277929    1.13217797680946    6.24169992432351
C           3.74203762955701    0.49133776475643    5.06414696258327
O           4.43405071466002   -0.62972929525785    5.28540237789515
C           4.61235241132623   -0.73690385806701    6.61292687404373
C           4.03359433471300    0.30914778926376    7.27082503947833
C           4.01561138819180    0.59673273394557    8.70172096389843
C           4.26926546373457    1.88298664777542    9.14982299914291
C           4.23581185087510    2.17783287145443   10.49590882455902
C           3.93524514629067    1.18683463983275   11.42203568705526
C           3.95318754621021    1.52071835051271   12.85319253184352
C           3.33854186463223    2.68838204928482   13.31269971135284
C           3.38279803445658    3.00575396138385   14.64918439018099
C           4.02835368048014    2.16623615918006   15.55876203697103
N           4.01871977834950    2.58606778945842   16.92808575409714
O           3.77749249122617    3.75278415016277   17.15879111235331
O           4.24690016686135    1.76141350430536   17.79706637653810
C           4.65876372971262    0.99071525253309   15.12436793764837
C           5.37907289530710    0.02745734045196   16.04429474725810
O           4.49495688655298   -0.75648027405805   16.80092725490064
C           4.61053039636370    0.70159504352993   13.76871362487848
C           3.64981934784096   -0.11705337337529   10.98542071017966
O           3.31719472899548   -1.08958057718813   11.91759863548912
C           2.04447727241920   -0.93740843932559   12.51158557589810
C           3.71059459823397   -0.42781079465424    9.62107233638486
O           3.50833118548202   -1.64209144894454    9.05161183600615
C           3.16706163981303   -2.78371464297827    9.80769089965240
S           3.97580637725373    3.42754895363088    4.22609947376410
C           5.10789634531862    5.01333273172775    1.83746583074780
O           5.60341510036761    3.82540391217407    2.33230127699212
C           6.91830195147899    3.90434197288965    2.86221719393586
H           5.66237714584078    3.65870328299574   -1.16210642546408
H           6.33492210526563    2.99298326451640    0.34045466199883
H           7.42533838963340    3.45139009048105   -0.99339490551260
H           5.67115370373105    5.84740598320481   -2.22744635227702
H           6.64727331091179    7.06799419144972   -4.13427849557894
H           6.61625141859532   11.38327547955398   -0.71009283211856
H           6.68779854399021   11.64207526257451   -2.46912651001425
H           8.85961895495336   11.12294901653286   -2.35926565538215
H           6.01146055707828    9.37873298580026    0.15099039675737
H           3.79040558221076    8.42254392996624    0.63368551045217
H           2.72867595466860    7.32030091438813    2.53395996974532
H           1.82534906124484    6.32674583799531    4.20325066828704
H           1.17567775319010    4.69983558270444    6.10746476946629
H           3.46925648908673    0.70881680152676    4.05036138183524
H           5.16394864736324   -1.58037929493005    6.97424718340303
H           4.50843379329714    2.65435740019079    8.43427507217726
H           4.47119232612958    3.17261422817096   10.84078273056119
H           2.81266477178068    3.32654572604400   12.61965899992602
H           2.90992005150723    3.90081122310949   15.02469989925220
H           6.06970437277751    0.57906589220392   16.69808445172283
H           5.95839385303529   -0.67291291393742   15.43764845626433
H           4.13314222813992   -0.18958202129057   17.49952818773272
H           5.09497170744463   -0.19352344351272   13.41131547388198
H           1.94077192289808    0.02814624805310   13.01487849186995
H           1.96038213014053   -1.73739750051924   13.24473957266181
H           1.24605678703206   -1.03323959875636   11.76624060259050
H           2.16986484851632   -2.69922801032325   10.24622499459596
H           3.89460302278324   -2.98342907802901   10.59603938274648
H           3.16904131889445   -3.60336673337485    9.08852667443399
H           7.63226337988106    4.26629978140251    2.11911228636623
H           7.17798532139317    2.89214388906450    3.16567015440130
H           6.94255190044348    4.56410582396617    3.73454409761671
