123
 SCF done       -250.769819168671          0.000757400557
C           0.47135611753897    0.65665599983224    0.95568075969451
C           0.86134870097128   -0.20474345985491    1.97174386972839
C           0.57945965589192   -1.61772783475603    1.89467387062922
N           0.96020182213630   -2.42946013167925    2.88333501354908
C           1.59852743685108   -1.94456084158932    3.92203215710157
C           1.88161757402761   -0.53806395495795    3.99611317120242
N           1.51669711379868    0.28475127751073    3.04894738609919
C           2.57345837948515   -0.03343881981161    5.12800266333725
N           3.13372075064506    0.32923884503710    6.05859866706137
C           1.99300330393904   -2.83458289803800    4.94806849965518
N           2.32280662481799   -3.54880904120892    5.78199713742128
C          -0.09430233612538   -2.20243058323769    0.79680493900223
C          -0.47634767588254   -1.31533745068329   -0.23065446501967
C          -0.19132743856308    0.10508202125302   -0.13692536379344
N          -0.63642657175446    0.76751871591953   -1.21133807828192
S          -1.32534895737382   -0.26939395420845   -2.21628919093762
N          -1.10904882061961   -1.61574819988517   -1.36635307949574
C          -0.33438266261493   -3.60466090097828    0.77938876216531
C          -0.97534720270404   -4.33341172917848   -0.20003089279109
C          -1.03498315972504   -5.71122243835030    0.07014788008103
C          -1.64546396568855   -6.73049470331414   -0.70890334703429
C          -2.18413873258883   -6.44647587857207   -2.01717883345045
C          -1.68034702046953   -5.60836063568183   -2.97713355607173
C          -2.45529165799688   -5.57460447192375   -4.15024137396662
C          -3.55667796366269   -6.37547476662631   -4.09543662287286
S          -3.64652778277964   -7.20988737003078   -2.58036122915781
C          -4.59165352613760   -6.59582955229849   -5.13856392176278
C          -1.67348848566785   -7.99866552044530   -0.14594662421461
C          -1.09715435817322   -8.30571170538974    1.11566159224524
C          -0.46946376954064   -7.29231262458943    1.88472870032435
C          -0.44485864254879   -6.02403460841399    1.32084075230639
S           0.21111505655360   -4.60331800981814    2.09667237150581
C           0.08349766208375   -7.55259069765403    3.19101970477209
C          -0.39837517238005   -8.36898028615679    4.18284675751931
C           0.36790556838391   -8.32572953554210    5.36008318221260
C           1.44312386556890   -7.48926574434075    5.28074072776281
S           1.52328718835134   -6.72641887535121    3.73114419238254
C           2.46006065325367   -7.17512075604457    6.31422664931540
C          -1.18966694029154   -9.67311657090761    1.41576988730443
C          -1.83754021670147  -10.41475739342559    0.45297269598079
S          -2.32399392006792   -9.43117679172555   -0.90572870453346
C          -2.12661245889163  -11.80963002010619    0.46251338932786
C          -1.95280905905625  -12.65463828884798    1.58312241074662
C          -2.24207252880548  -14.06058103495612    1.51262900641820
N          -2.05498045136670  -14.83100582845738    2.60229789141632
C          -1.63205496412300  -14.30104285796804    3.70392578213480
C          -1.37064678844424  -12.91194082092906    3.77892483144273
N          -1.52711935255513  -12.13664786899709    2.75502607710911
F          -0.95889593152745  -12.34855536946321    4.91604168096484
F          -1.46016847338244  -15.09756899896447    4.75658937428432
C          -2.71799294118369  -14.69748169018407    0.34466660681655
C          -2.92621208313733  -13.85011964062701   -0.76703525841275
C          -2.63965577152642  -12.43743730797016   -0.69407264504273
N          -2.90680506472931  -11.81746798000193   -1.84246131888752
S          -3.46074577050838  -12.88634387034628   -2.90395870479936
N          -3.39068011574987  -14.19097640788288   -1.97014157206923
C          -2.95661237964412  -16.09984295656281    0.31116591525768
C          -3.36044116940135  -16.83546982185885   -0.78267256636607
C          -3.49565112612631  -18.20865726092087   -0.52663116559335
C          -3.86400923790227  -19.23370913319143   -1.43694598261782
C          -4.07510208489564  -18.99118865458891   -2.84471945219937
C          -4.95576063612979  -19.61528237184893   -3.68921040134565
C          -4.84610386901824  -19.19690899889515   -5.02672024458196
C          -3.87529277384672  -18.26190005088215   -5.22531381525332
S          -3.08432978188445  -17.86316952938531   -3.73722471770737
C          -3.47292195809359  -17.60102249509135   -6.49343762037595
C          -3.98183466687370  -20.51104463966099   -0.90412032931276
C          -3.71318093224384  -20.81615323949796    0.45571266702241
C          -3.29313513723032  -19.79956403260415    1.35231585095589
C          -3.22330037201304  -18.51511632013034    0.83325243003929
S          -2.74179063848930  -17.09126430981030    1.72524952166351
C          -2.94248370480405  -20.10283250899527    2.71971648990429
C          -2.25668348495937  -21.18703112787363    3.20157548947915
C          -2.07218162185679  -21.15399798273213    4.59536697542045
C          -2.62016674545629  -20.05606316364762    5.18923881224441
S          -3.36794122425429  -19.02256859001088    4.01961421707856
C          -2.63000051039040  -19.69045680880355    6.62882609164105
C          -3.92323759962801  -22.17578478145980    0.73709389367870
C          -4.29538389899838  -22.91931389695236   -0.36166120919399
S          -4.43342210392131  -21.94439172416430   -1.79968565193606
C          -4.55590045939315  -24.31718647653549   -0.40119872352780
C          -4.95917907079707  -24.93209209753723   -1.60960530415141
C          -5.23021519060709  -26.34666452594202   -1.70567669725062
N          -5.61137500460366  -26.87338310889564   -2.89152217708215
C          -5.73135324045268  -26.08255717455508   -3.92424074949896
C          -5.46750817255842  -24.67351020578014   -3.82797089209954
N          -5.09009037361776  -24.15096734610232   -2.68493746910095
C          -5.61408081739579  -23.82505387937260   -4.95007112258037
N          -5.74470835925441  -23.15134548434657   -5.86818212200484
C          -6.13012925060243  -26.62621301883522   -5.17334250862973
N          -6.44861178172238  -27.02389324449489   -6.19887594786207
C          -5.10373390925969  -27.17651641650263   -0.60050714189961
C          -4.70498963212694  -26.59505287197056    0.59906193192457
C          -4.42891071412596  -25.17478577527345    0.71205364625078
N          -4.05728507167863  -24.84485352007076    1.95047669318767
S          -4.05811873488289  -26.16418203036829    2.86724635068131
N          -4.52273849607198  -27.22663943490216    1.76497303742826
H           0.68047133281169    1.71065597557225    1.01518956114717
H          -1.40904977240407   -3.85939981170529   -1.06083249230947
H          -0.75674837358885   -5.07037734067937   -2.86285984702299
H          -2.20450741494756   -4.97580645201770   -5.00792667500555
H          -4.47354202662649   -5.87281910310541   -5.94174189407686
H          -5.59050873020242   -6.49899853934112   -4.71686682941371
H          -4.50387048212533   -7.59872096886856   -5.55679789109339
H          -1.30492591912592   -8.93933763521441    4.09184630996663
H           0.12757750865834   -8.89437912665390    6.24068950652571
H           2.21400145744514   -7.67588248874375    7.24720198151789
H           2.50357365808084   -6.09941576579903    6.48337007324001
H           3.44947086967060   -7.49864454355324    5.99094798391625
H          -0.77156878209172  -10.12458694230544    2.29353251055510
H          -3.55455683402202  -16.36641536303633   -1.72854553539981
H          -5.69002192363245  -20.32700795670194   -3.36025772570361
H          -5.46060429175918  -19.58906986336363   -5.81683383150799
H          -4.04663264775786  -18.00970476315410   -7.32136859019957
H          -2.41234652732929  -17.75621201582767   -6.68893872362887
H          -3.64710811180973  -16.52623755228438   -6.43996267307652
H          -1.85157408264065  -21.95698269870552    2.57013183518190
H          -1.54684917292217  -21.91791994324930    5.14083484115063
H          -2.06757787588145  -20.42145405809313    7.20451772623664
H          -3.65068459413606  -19.65345782911358    7.00912314747389
H          -2.18637933003743  -18.70636292168156    6.77510921558484
H          -3.83066196910104  -22.61806980502113    1.71129487477188
H          -5.30671876650442  -28.23062161358218   -0.67691711890635
