89
 SCF done       -205.335431971333          0.000249309133
C          -2.99286668394952   -3.88736647660566    6.84563944750558
C          -1.76337154497621   -4.03946000905283    6.21700439160393
C          -1.66104297507100   -4.63046270941043    4.90453006512722
N          -0.46673472637993   -4.75785391862679    4.31751619968611
C           0.60995072860439   -4.34537278723921    4.94174157257576
C           0.50781358170274   -3.76421274603707    6.25378336226804
N          -0.64401450494910   -3.62493856603858    6.84998287021324
C           1.68780971736257   -3.32866760657278    6.91372020017664
N           2.65799778042737   -2.98759242026196    7.41626324080477
C           1.87113763493126   -4.46929373830311    4.31104021189523
N           2.90594017085751   -4.55048100470315    3.82653844920726
C          -2.79650822779356   -5.08414102057714    4.19000700150970
C          -4.03824969352357   -4.91906331799296    4.84207730047508
C          -4.12207346183687   -4.32374172920686    6.16209461780795
N          -5.38896796500891   -4.26473210727784    6.59363493784774
S          -6.35177746273181   -4.88120985313927    5.47818770031648
N          -5.24404146077201   -5.26129764611156    4.38419537809931
C          -2.66243313012001   -5.65753870408626    2.89942407287590
C          -3.69559509456161   -6.09611429015862    2.07645677065552
C          -3.22257424088323   -6.59619091437072    0.87501534614415
C          -1.80965619445327   -6.54974858628448    0.77851646366860
S          -1.07879527260098   -5.87310082278366    2.16997137350190
C          -1.43062537222366   -7.06879023838108   -0.47602308496706
C          -2.60218800515450   -7.43937568648871   -1.18129367730367
C          -3.76160164353789   -7.15835499054484   -0.35046800867540
C          -5.07255845225352   -7.37578174071955   -0.65853316290296
C          -5.47188684759973   -7.92893424301622   -1.89389203764696
N          -5.80419663748427   -8.37765057684432   -2.89536287023024
C          -6.11734985904679   -7.06241085748076    0.23684008175823
N          -6.97261616467843   -6.81094531180566    0.95789742132161
C          -2.33566218475254   -7.94809398011884   -2.43947846299204
C          -0.96812932292994   -7.98129053838361   -2.70833133122524
S          -0.00382876833577   -7.37665698221399   -1.36939452566223
C          -0.35462165144231   -8.42127011233540   -3.90495283774794
C           1.05430889807048   -8.44971407699490   -4.03576217048620
C           1.70708472378127   -8.86812193143511   -5.24669518559623
N           3.04247356460387   -8.87363595681889   -5.30965357355309
C           3.74912330885655   -8.50193990455531   -4.26866860335000
C           3.09927479952298   -8.08953498994960   -3.06166692193441
N           1.78970952877144   -8.07403372310196   -2.98440301490922
C           3.86417365763124   -7.69846227138222   -1.93415708807537
N           4.50748953722782   -7.39168164463451   -1.03819685639816
C           5.16406294078687   -8.51176540934085   -4.35318790903664
N           6.30821110228533   -8.50833031481099   -4.39408053693263
C           0.98619670682883   -9.26836101391092   -6.39695051790686
C          -0.42407897429681   -9.25744838576299   -6.26541771504458
C          -1.08014118806470   -8.84804342264248   -5.04417232049937
N          -2.40636311624343   -8.92124656153865   -5.15646356485200
S          -2.79458596295798   -9.44530467296212   -6.62047112021335
N          -1.30877362773084   -9.60780419185352   -7.19890661349609
C           1.65653553073275   -9.63640601501259   -7.58735576331760
C           1.06383343910151   -9.97868533942809   -8.80193091513521
C           2.00561615861529  -10.27041227067111   -9.77184734385735
C           3.33675472153097  -10.16348148689237   -9.29867202103003
S           3.41175841584387   -9.68246320383277   -7.65798940729427
C           4.21359300087328  -10.47872588997171  -10.35634116437694
C           3.44089387409594  -10.77931821269481  -11.50542762481846
C           2.03271897156876  -10.65705828121208  -11.17301547608705
C           0.96418898577387  -10.85428858938562  -11.99772600253041
C           1.11681766107757  -11.22524137502497  -13.35072127441009
N           1.23096518901916  -11.52647951875885  -14.45113276928597
C          -0.36606218003275  -10.69686528505481  -11.55369505858552
N          -1.44942900325786  -10.56827139776752  -11.20086955783478
C           4.21758089586337  -11.09688586286344  -12.60689293502297
C           5.57745488933104  -11.05190381608954  -12.31403028534730
S           5.89537372587231  -10.60882782634527  -10.64397088573256
C           6.64367076955870  -11.31917434861470  -13.21076838742602
C           7.98915389249841  -11.28352796027838  -12.77027287069755
C           9.09632613103877  -11.54911191073746  -13.65679367837174
N          10.35892209967411  -11.50274655384971  -13.17809317201761
C          10.54750209643804  -11.22149309010356  -11.91837697232186
C           9.44413001713691  -10.96095867981212  -11.03273881711539
N           8.21355570019923  -10.99809903891936  -11.48364200468453
C           9.67720289247533  -10.66958471723847   -9.66725129430509
N           9.90028767623656  -10.44108615371790   -8.56716960204169
C          11.87248660670980  -11.17499396481067  -11.40862734963013
N          12.92652119438754  -11.13086849192466  -10.96456090104683
C           8.89060266009512  -11.85242068497003  -14.99682163744188
C           7.57751876293787  -11.89464271962525  -15.45155564372671
C           6.45238004415972  -11.63352801085902  -14.57419604591789
N           5.29256589895558  -11.72883511174199  -15.22724636628867
S           5.57833143771531  -12.10239486203516  -16.75929165147715
N           7.17315645542319  -12.16716183219695  -16.69934077016550
H          -3.05822328106579   -3.44707897144121    7.82542650035801
H          -4.72600414013912   -6.03338223035996    2.37547049520052
H          -3.06296105837078   -8.28551297526992   -3.15484615982831
H          -0.00317312207069   -9.99816847394233   -8.92713123792712
H           3.85517773397721  -11.35266699934941  -13.58583973574826
H           9.72334729215477  -12.04577314222633  -15.65046897833235
