89
 SCF done       -202.817627492994          0.000506995125
C          -5.72948014636434   -1.02596040983727    3.85774462970892
C          -6.18555345247625   -1.42340944851722    2.60769809684248
C          -5.38991309907799   -2.27674491038544    1.75765472959337
N          -5.85069078778497   -2.64720302140678    0.55964041661226
C          -7.02950827057669   -2.23313547445377    0.16004706331094
C          -7.82174202364032   -1.38344477240953    1.00780543922337
N          -7.39769826119689   -1.00453410278991    2.18195692678349
C          -9.09642893894899   -0.95026160058394    0.55541394412432
N         -10.11755569075058   -0.62160362914082    0.15589964370052
C          -7.50996571018723   -2.63395578467127   -1.10897597103518
N          -7.92236335537683   -2.94496401336529   -2.13174105853447
C          -4.11512254971942   -2.75530657716909    2.14677488144819
C          -3.66707542024640   -2.34126530859997    3.42002567673650
C          -4.47866780965067   -1.48153799497050    4.26028596004090
N          -3.86703946360381   -1.21281310328275    5.42125656695266
S          -2.44942982935738   -1.94964541579286    5.44986107941316
N          -2.51163831838558   -2.65173780488947    4.01060856373729
C          -3.36856359939448   -3.60562428057397    1.29181512157421
C          -2.12787519376073   -4.17460941440280    1.56028836275512
C          -1.68655010745895   -4.97326352823850    0.51717007679151
C          -2.59932119645508   -5.01134208698730   -0.56361576827214
S          -3.99827037571959   -4.06592439942193   -0.28213878373265
C          -2.07192040399995   -5.86073121972671   -1.55484184680308
C          -0.82586053502634   -6.36874225839995   -1.11461456984988
C          -0.55983905747359   -5.84018539072481    0.21635283275472
C           0.48426012934999   -6.14439070479608    1.03775244215601
C           1.46813560957429   -7.10338679859746    0.70901263354158
N           2.25143550128888   -7.91066086840117    0.49093148346399
C           0.62529491246404   -5.55697954445751    2.31414136045197
N           0.75031709936067   -5.08410972527621    3.35103688872188
C          -0.22448109647118   -7.21288905881466   -2.03387203575150
C          -1.01315919902163   -7.37534411217993   -3.17271337802293
S          -2.50709435784639   -6.44828994830267   -3.09720712323817
C          -0.72889735669423   -8.20866014521945   -4.26586154576050
C           0.44106772540964   -8.95860677175039   -4.47424381854256
C           0.36220687143211   -9.78683989220852   -5.64257245695038
N           1.35506987475039  -10.59971872487301   -5.99712172379105
C           2.43577188372807  -10.58123865096904   -5.24589081398880
C           3.54159597253595  -11.49774433961085   -5.62617261184760
O           3.48381295855564  -12.21708654356615   -6.59962458689309
C           4.70858284805951  -11.46748123791182   -4.72722523973144
C           4.82491437502644  -10.62841086150300   -3.69295574566630
C           3.80439995184760   -9.62641492814335   -3.33398472333287
O           3.98995995930268   -8.77985580307297   -2.48903234810726
C           2.54148672815691   -9.71275001024773   -4.11538660750690
N           1.55163747485402   -8.93320868682463   -3.73472016997040
C          -0.84119626580050   -9.65183871203740   -6.34801513800516
S          -1.86485096833322   -8.49747959465151   -5.55520893230648
C          -1.17956571257930  -10.37344428484394   -7.50123197880042
C          -2.31091036153854  -10.23304779330550   -8.30119139952797
C          -2.31846382342406  -11.15573141088054   -9.33414011885090
C          -1.19344703112215  -12.01622572784192   -9.31129146043179
S          -0.10614695406029  -11.65715057949172   -8.04250911957554
C          -1.31907735467527  -12.94585084438475  -10.36590191966541
C          -2.51443688822325  -12.66567082508701  -11.06999072753327
C          -3.17108311609645  -11.52765909713833  -10.45246539443577
C          -4.33502535551604  -10.93035133615815  -10.83874084298978
C          -5.07785367262282  -11.37657211139680  -11.95249434325042
N          -5.68883999038288  -11.73199568353198  -12.85514829937380
C          -4.86844133471404   -9.82184012775203  -10.14773924290058
N          -5.29692273215674   -8.91887160425317   -9.58580897149800
C          -2.74128223016122  -13.54689992247711  -12.11508773736891
C          -1.74193879455090  -14.51004454886183  -12.20739879724893
S          -0.49583727882347  -14.31094868669433  -10.98485995698223
C          -1.67848597703127  -15.57599194258271  -13.14192054159453
C          -0.64938615516956  -16.54588249462230  -13.06814420280857
C          -0.56717671333231  -17.65205280080968  -13.99183462301764
N           0.43321211682043  -18.55164895932157  -13.86618991078362
C           1.30226470133797  -18.40046621783112  -12.90531436765477
C           1.21835940488996  -17.30095851554050  -11.98118913909743
N           0.25634510111928  -16.41723997957362  -12.09338913531226
C           2.16803564522661  -17.17290594027497  -10.93964540172855
N           2.95238782586560  -17.10677433238495  -10.10731611216460
C           2.35186951240275  -19.34673282862640  -12.76334485397678
N           3.20975087609969  -20.09072774962546  -12.61933172432879
C          -1.49911579488624  -17.81311895558475  -15.00899469944604
C          -2.51806352939132  -16.87172061466897  -15.10157325016845
C          -2.61960815270983  -15.75737037863968  -14.17874199548796
N          -3.67324631617571  -14.98735038226658  -14.45795721879771
S          -4.44545563086515  -15.58921212108720  -15.72656098418907
N          -3.50719207534885  -16.85194345048074  -16.00477180252087
H          -6.32930218806326   -0.38978070498468    4.48506142435628
H          -1.60835794526281   -3.99211404413895    2.48321759211601
H           0.72635578496401   -7.70453214307879   -1.92798552054623
H           5.49158967474118  -12.17229502424549   -4.97232438772655
H           5.70757850693429  -10.62376022218299   -3.06790024152495
H          -3.06602957232703   -9.49086906321124   -8.11250539599549
H          -3.57796876452378  -13.52884407591942  -12.78936435597199
H          -1.42719473945709  -18.63970086004553  -15.69430666395098
