72
 SCF done       -150.071828545314          0.000837422214
N           1.93894896391723   -0.81763098454325    2.67498826491186
C           2.87511531553216   -0.88079907700677    2.01823105613542
C           4.06082541891744   -0.98948260159224    1.24667389108121
N           4.06657343148080   -0.56307152524986    0.01402863574614
C           5.19677938782989   -0.69650928067771   -0.71727994043372
C           5.19929171631224   -0.23218301835793   -2.02529551441299
C           6.35975256966306   -0.40979764387053   -2.76761717924473
N           6.55237736600363   -0.07507163919395   -4.05066840059927
S           8.02312406757053   -0.53114824882930   -4.48866548852411
N           8.51072408163802   -1.16556738299937   -3.10408429451234
C           7.53149442614579   -1.04944748962034   -2.20000408895700
C           7.54659740379347   -1.52187137724091   -0.87653963780090
C           8.67794016403781   -2.22338088729463   -0.30099798269760
C           8.46394353751849   -3.40086554723639    0.37815633570035
C           9.51912852377327   -4.17988199963346    0.87121262127135
C          10.83142571948802   -3.81301413175294    0.69722225148160
C          11.89793056687662   -4.70566167902874    1.12798994094428
C          13.00235036340769   -5.00710584965383    0.34618243691482
N          14.01144771845148   -5.79902812576083    0.70130456870198
C          14.05412985010590   -6.36759609956223    1.88757555142525
C          15.19983199064533   -7.21689263345918    2.19677548913135
C          15.62540218401293   -8.10841298194464    1.24368620660594
C          16.63145622804425   -9.04846730659183    1.51084838186583
C          17.25451906718819   -9.12049494832347    2.73473903351485
C          18.20026402927381  -10.19134278085911    2.98790831531630
C          18.16258589263320  -10.98386620121490    4.14762604584782
N          17.29160271714742  -10.88546513653812    5.15835972289742
S          17.60052826538112  -12.03130030772569    6.22935140924720
N          18.84011466894020  -12.73125822243041    5.49725484150620
C          19.07865707103082  -12.09152160253508    4.34418108030698
C          20.03790582543947  -12.41616569605165    3.39380722809663
C          20.08672182754455  -11.64381175357856    2.24135100157802
N          20.99201647335831  -11.96217653485948    1.28810342048809
C          21.04959873959929  -11.23478827377210    0.20708034455579
C          21.97481845404608  -11.57294415652589   -0.81405277655050
N          22.70215455588010  -11.81442322163838   -1.66506631360277
C          20.20187821270881  -10.08340834131326    0.03676595125325
C          20.33749232376007   -9.27313211393049   -1.11657570358768
N          20.47319902083261   -8.64173499048401   -2.06323654682141
N          19.30624471408421   -9.76703796953900    0.93736923539424
C          19.18484920815814  -10.53129864790275    2.03608391559036
C          16.93234974015288   -8.14088572102954    3.74001203425018
C          15.86764221857138   -7.16465514477810    3.46185752028970
C          15.62038165618271   -6.26043548206991    4.46716287419756
Si         17.17710281564158   -6.25144501564412    5.49241092473406
C          17.54979502725222   -8.00127927572444    4.95478124596714
C          12.95898033634110   -6.20244416979189    2.77612759756568
N          12.75340327482778   -6.76124293105411    3.96883401573455
S          11.33215765740207   -6.27458076439320    4.53192613243619
N          10.89818617164121   -5.33542255913176    3.30330359873457
C          11.85690120912039   -5.36953437916962    2.37617525772168
C          11.13096309128155   -2.56043071572317    0.06806281456569
C          10.02457004276249   -1.73552793144133   -0.43823159148991
C          10.39608360732390   -0.53511670549276   -0.98706429105352
Si         12.10324725291420   -0.20128429422387   -0.31268710829092
C          12.39029970650138   -2.03177827308325   -0.11028206409053
C           6.36058895113499   -1.32977916968674   -0.13599515932749
N           6.34130881906647   -1.70848805266775    1.15286638870871
C           5.24138951770307   -1.55436362672874    1.84633804984083
C           5.22407533595236   -1.94580820728116    3.20690139453758
N           5.17503405242210   -2.26336598537080    4.30688928354866
H           4.32030490569585    0.22468096475109   -2.44617993058989
H           7.45900233133306   -3.78158069336972    0.47586330721292
H           9.29030347951001   -5.11821919965763    1.35205067749180
H          13.07961051560834   -4.60977231712930   -0.65692557289834
H          15.12843444791136   -8.12450698182390    0.28581548105986
H          16.86206920914988   -9.78132461957649    0.75305119150235
H          20.70759629272931  -13.24870000233835    3.52398163345889
H          14.94397920184510   -5.43560303074528    4.31717279767801
H          18.40608306508720   -8.59454705113054    5.22690201877346
H           9.66794903757923    0.19219995183629   -1.30272911820949
H          13.25446496717392   -2.50264020599112    0.33109528619351
