88
 SCF done       -186.386834723276          0.000680703243
C           4.53450769942516    6.88645006448749   -0.34977664303996
N           5.26500335355662    5.71304821408803   -0.74016752465527
C           6.38766783865456    5.82309439157704   -1.58853514718852
O           6.75591728085421    6.87854873941663   -2.06194279619520
C           6.87281544868723    4.46626930553661   -1.70930390637261
C           7.82841556497404    3.67316964594617   -2.34085515130960
C           8.90578912149086    4.18283302712603   -3.13811200567375
C           9.37924456363603    3.65624937825348   -4.35093707162907
N           8.99934698928392    2.52787599949600   -4.95844248687254
S           9.78858058837066    2.38958501955054   -6.34999525908490
N          10.63500333347761    3.74141805362526   -6.28746154287982
C          10.34290469420524    4.39106908459101   -5.15358648457509
C          10.80240490615253    5.64991986092399   -4.78329721688300
C          10.34732015454747    6.17344644350812   -3.58022914569401
N          10.69503558424799    7.43025590128503   -3.22561552579688
C          10.24193933561908    7.91596352733343   -2.10463654483865
C          10.52945120306692    9.26053459422994   -1.75510822038702
N          10.74049816160401   10.33932742497887   -1.43498071855881
C           9.52314903422964    7.08237142831621   -1.17390712227615
C           9.21364597064652    7.55601934182517    0.12356267996774
N           8.94388116579130    7.96295061804258    1.16003560327560
N           9.18301082603956    5.86342081308255   -1.49872407989726
C           9.46285450363350    5.41757018040792   -2.72918351079722
N           7.56173657262784    2.37263478132641   -2.02873912486737
C           8.36440560890515    1.22562830869390   -2.35436088579458
C           6.45108087603656    2.26094572080958   -1.16461415285407
O           6.06010501014694    1.19681373228757   -0.72767948420452
C           5.99853853448241    3.62007562890832   -0.98152509411437
C           5.01785980669198    4.41415704083829   -0.38060075033923
C           3.96156948946264    3.95887981007162    0.44967457737277
C           3.76615966745645    2.62949525514383    0.80513130858178
C           2.67202252427772    2.44496882516862    1.63942571655786
C           2.01302252825970    3.62178510603572    1.93650159118589
C           0.80519244907164    3.85352287175085    2.71419273585685
O           0.24310518817071    4.92985675821192    2.74481489882569
C           0.32147610966833    2.70408017742024    3.51276315514898
C           1.04486796279519    1.88920490247430    4.33547436973073
O           0.24114078553458    1.06022594330771    5.01497812323274
C          -1.01742313648255    1.32730230581951    4.65293016814306
C          -1.05275157219663    2.33993723570376    3.72694159488203
C          -2.16406298369923    2.91187241109419    3.01806352038133
C          -2.16103884318342    3.40765312627900    1.72695010263224
C          -1.34768651799012    3.57207759578650    0.54705565975602
O          -0.19620199859533    3.27629036044955    0.29717011136124
N          -2.21025869731906    4.18078119045357   -0.38887775326788
C          -1.71515222444352    4.64971604664711   -1.65408363569222
C          -3.45488175187761    4.39053937769693    0.13284811837866
C          -4.58312960292766    5.00817529472407   -0.50529136003466
C          -5.01550515999077    4.81112508776766   -1.82688086736481
N          -4.41254396468752    4.10899473819705   -2.79187216591944
S          -5.32977036246479    4.13085350384203   -4.10931676457796
N          -6.54571501473236    4.99751125849838   -3.54742072921558
C          -6.29976032872794    5.32615776616787   -2.27281427802073
C          -7.16783922328573    5.98686788450740   -1.41103037303307
C          -6.74473004268537    6.19221592069275   -0.10474077237262
N          -7.59699421264657    6.73105890597291    0.79502415922597
C          -7.20114056995146    6.87697037953427    2.02735215619944
C          -8.11332619004257    7.35161598082858    3.00470601686809
N          -8.82307219168282    7.72941697318532    3.81986445328382
C          -5.82624878005450    6.64205061128705    2.39540739141405
C          -5.36504860543536    6.99253303635728    3.68723665458050
N          -5.02671246247737    7.24475573575543    4.75219911426965
N          -4.98612346540391    6.13683428757508    1.53356718217826
C          -5.43331211190682    5.77517153191280    0.32531180322961
C          -3.45995576621449    3.91103045894656    1.43857523245599
C          -4.29698802578326    3.65996438729983    2.59161455518323
O          -5.47346021258083    3.85133889534904    2.82375683275232
N          -3.42266475683471    3.05909550157481    3.52655126925361
C          -3.86409274245128    2.73742943504077    4.85545228213763
S           2.74082820410328    4.97363667475321    1.15911548046501
H           5.03013022566866    7.73320866134216   -0.82676268709632
H           4.55706391329725    7.02133375023584    0.73246604790897
H           3.49781438738689    6.83821814542207   -0.68655459994820
H          11.43936444182381    6.22885137242008   -5.43009835924539
H           8.38931132845805    1.06759937787190   -3.43268164515524
H           7.90533881318155    0.36882085479054   -1.86155906978471
H           9.38444376388341    1.35574803977407   -1.98751480517485
H           4.40527447781620    1.83698902504082    0.45691319571314
H           2.34980053873893    1.48510741081554    1.99756853890627
H           2.09614343453279    1.83748763921860    4.53974001581437
H          -1.78965736443905    0.72030568494975    5.08118376619413
H          -0.66189985933301    4.37365396987717   -1.70206622881419
H          -1.81235057978666    5.73523013847681   -1.72321926114762
H          -2.26028117416131    4.18681069993526   -2.47707522863672
H          -8.16001618684998    6.26921121087214   -1.71957031430402
H          -4.79067807208667    3.28573734666370    5.02857046625921
H          -3.11649384629190    3.03935937306872    5.58801419921119
H          -4.06807536258012    1.66906747953632    4.95628364643853
