141
 SCF done       -279.445457218546          0.000685361772
C          -9.49224076796234   -1.26558872912375   -3.67630677671013
O          -8.83698350790008   -0.62070441887440   -4.46173755138373
C         -10.35762277783486   -2.42453277649031   -4.01389731535815
C         -10.96354543444011   -2.92704369020327   -2.85053609871705
C         -11.83231022693648   -4.00346246880386   -2.91812736729992
C         -12.07866819592914   -4.56575951777168   -4.16226857058645
C         -11.48056178490808   -4.08345754677496   -5.32468134482305
C         -10.60807558437856   -2.99594131837086   -5.24892291522411
F         -10.03997009763952   -2.53573161448021   -6.35952050479345
F         -11.74158050280530   -4.65574786621572   -6.50278186296754
F         -12.91643156710228   -5.60102424872454   -4.25226877349419
C         -10.50325721126003   -2.13405983529945   -1.71053468308146
C         -10.77090094081964   -2.42050516168336   -0.39731909082814
C         -11.59019963635219   -3.48766359328656    0.02946431321573
N         -12.25027074986735   -4.33151591314675    0.44077239860022
C         -10.24589462909558   -1.73472377349127    0.72025377798186
N          -9.84850918124594   -1.25677034584563    1.68565485271323
C          -9.65963067359008   -1.07026339416238   -2.21972691668990
C          -9.24335396415382   -0.00269263694196   -1.46523378082170
C          -8.37818506877304    1.06322088887894   -1.77598883683355
C          -7.48147031142869    1.25272612339228   -2.80660346372404
C          -6.77029571883047    2.46036926987634   -2.72576973774410
C          -7.10839294538775    3.21125821846621   -1.56284338553222
S          -8.33251751371043    2.40242314233236   -0.62812519812824
C          -6.54052548137617    4.43680910393456   -1.26382476553334
C          -6.94327162297985    5.22392904885528   -0.09291467833214
C          -6.99385630930185    4.64255044911757    1.17212753950339
C          -7.37123960475599    5.38833070899376    2.27022211452867
C          -7.71576284585028    6.72967602102444    2.14120297861598
C          -7.67220024816525    7.30404935713773    0.87717880279282
C          -7.29015359939274    6.56610232939107   -0.22638796249788
C          -8.13881689777896    7.52053584699537    3.33987596734443
C          -5.55052473839755    4.90011642645057   -2.15590294535378
C          -5.19517590346890    4.14482222767030   -3.30675973677271
C          -5.79975533067711    2.94423877607526   -3.63405019593275
C          -5.48415458768798    2.21770779730611   -4.86667616315041
C          -4.16275257561970    1.98446405882165   -5.23992455427891
C          -3.87369456809723    1.30624009045198   -6.40785184488122
C          -4.88835302627789    0.84825214119640   -7.23903195761728
C          -6.20727869249325    1.08967674107318   -6.86792245424533
C          -6.50525664515712    1.76237634908625   -5.70126926177498
C          -4.58215235574727    0.09965320051748   -8.49829289206961
S          -3.94923531787388    4.94823420390485   -4.23508438539433
C          -3.90782210953237    6.26385876740381   -3.09067935590051
C          -4.79675635304394    6.08371753326102   -2.05567598834691
C          -3.02365024100147    7.37134749196142   -3.25669929376024
C          -2.06483041358822    7.40707655188706   -4.29190987339301
C          -1.13404725365837    8.48872870425980   -4.46738605961457
N          -0.26535446246928    8.43667922628863   -5.50120857234417
C          -0.27338297103267    7.41808749829714   -6.29532702708973
C          -1.17673318031458    6.33997273521402   -6.10958543939507
N          -2.03222938801050    6.36007670759257   -5.14194880316725
F          -1.17269082696901    5.28808268940807   -6.92240368111781
F           0.59676272303215    7.41931242817503   -7.30488112777859
C          -1.12517458811140    9.60458400754270   -3.60031669696843
C          -2.11701135809034    9.59419025452383   -2.59639991350765
C          -3.04497461869173    8.50350122472828   -2.41276771935718
N          -3.87352116195983    8.73747565241848   -1.39190446358223
S          -3.52757366226547   10.16176110038851   -0.74019856588158
N          -2.31200870373389   10.56427708692048   -1.70256987259658
C          -0.20763228175093   10.69454090670945   -3.70032341628623
C           0.91381599447345   10.78449831227769   -4.48933164432976
C           1.59954793553312   12.00768919483216   -4.36726484039403
C           0.98283458777575   12.86678165918101   -3.41693045575796
S          -0.44394353169018   12.13204692483563   -2.72893588969263
C           1.46827047670951   14.12625997913125   -3.12032975737861
C           0.77352403768195   15.04885765199466   -2.21596518343697
C           0.37734749376291   14.65197004109813   -0.94174845857519
C          -0.27218109072049   15.53841974969856   -0.10536199524360
C          -0.55124598539722   16.83820080875989   -0.51356889968329
C          -0.16864645756744   17.22665562936998   -1.79223796491848
C           0.48398861956165   16.34698059779224   -2.63309265797847
C          -1.27253491634268   17.78774732564951    0.39089949546813
C           2.66109938423164   14.50888933664961   -3.77275867786402
C           3.28284545613166   13.64387649593381   -4.71598610145851
C           2.76595262029748   12.40488514043323   -5.05372914732534
C           3.37739359291550   11.54073418667030   -6.06860944015835
C           4.73956573676102   11.25563999880721   -6.03681091464910
C           5.30294153268308   10.42185150363654   -6.98362498853279
C           4.52951789773857    9.85568828323880   -7.98898791351144
C           3.17118725865212   10.15458671036369   -8.02688777877962
C           2.60009511287144   10.98277996192768   -7.08312862088870
C           5.13491609138156    8.95838078360690   -9.02238974468925
S           4.71792391061721   14.36904502309715   -5.38278118361308
C           4.49356131689048   15.80783652392535   -4.40416235895698
C           3.37403949469127   15.70743190959711   -3.60663819471089
C           5.47116206232424   16.82491237989787   -4.44484164678108
C           5.41471418767274   18.10067948439674   -3.95995227146366
C           6.68868055491344   18.82278977205204   -3.70218360877538
O           7.78926912965259   18.51129883668370   -4.08059862731739
C           6.30399015417150   19.97016673838208   -2.83864342694259
C           4.90458508286126   20.00406576427418   -2.69467986989188
C           4.32638192547819   18.93282307558307   -3.50815431914785
C           3.02983364964626   18.89783744633534   -3.95329946069753
C           2.00288730009538   19.74045229124841   -3.48606493236216
N           1.11923053454267   20.36680066399354   -3.10608331567834
C           2.59804606043932   18.04141463166772   -4.98729348896083
N           2.21702250052445   17.39949455973753   -5.85867133590201
C           4.29475079963386   20.96571132679241   -1.90861806609212
C           5.10514297185546   21.89369178853298   -1.27011628364565
C           6.49145148324985   21.88352068816121   -1.40953098791951
C           7.09939312529923   20.90851029080263   -2.20502305504974
F           8.42141480091276   20.90273710257000   -2.33144320632456
F           7.23540248497131   22.79830421324181   -0.78368913979839
F           4.54194813392812   22.82390421110635   -0.49619733171693
H         -12.32603713674680   -4.41766915534945   -2.05501851650716
H          -9.66153327349831    0.06580401214182   -0.46746209039155
H          -7.32798814655618    0.53025849739828   -3.58540694794101
H          -6.71107234465698    3.60801036340311    1.29781332715899
H          -7.39803769280977    4.92453831592571    3.24554678032494
H          -7.94371644358522    8.34273481415464    0.75314724060604
H          -7.28451113899462    7.02387396015911   -1.20462207492139
H          -7.45343731419663    7.35648239096277    4.16938396549736
H          -9.13111258030530    7.20573127409022    3.66297920976807
H          -8.17302078726956    8.58360341966489    3.11540324744175
H          -3.35910843349497    2.31172338086266   -4.59763117145615
H          -2.84230447103827    1.12963744237631   -6.67660588057971
H          -7.01112965616216    0.74392180757608   -7.50080776332674
H          -7.53555539390305    1.95982450461500   -5.44695748011411
H          -3.53108049400283    0.18859782689344   -8.76059696965432
H          -5.18536351887771    0.47375873053778   -9.32321661303137
H          -4.81697762694760   -0.95707195871554   -8.36950603426951
H          -4.88308738147361    6.78424659090605   -1.24631523286527
H           1.23676257287219    9.98235155200001   -5.12394682172137
H           0.60096795909128   13.65240817498692   -0.60023510575894
H          -0.56507901989100   15.21829295091539    0.88427472586810
H          -0.38323045215614   18.22918976511345   -2.13408603758305
H           0.74267398561622   16.65160873774825   -3.63669143579900
H          -0.99207089631377   17.62518258253857    1.42926715534303
H          -2.34869627352598   17.63329314336405    0.30643780640058
H          -1.05811801069765   18.81857941415389    0.12043142263646
H           5.35425199668619   11.66393116973697   -5.24814111144866
H           6.35989120816501   10.20273150344344   -6.93573040368080
H           2.55484328514367    9.72703268391600   -8.80406964209340
H           1.54862916994424   11.22170863451822   -7.14154275755273
H           6.11835809173635    8.61328407620161   -8.71350998191501
H           5.24155994022653    9.49520051145347   -9.96530347240805
H           4.49614000046260    8.09588707946188   -9.20164130047235
H           3.10740263538520   16.44367600788634   -2.86928739295851
H           6.43807129780369   16.53639132193416   -4.84597091203412
H           3.22780302825104   21.01698124019585   -1.76625293745543
