104
 SCF done       -219.573500962834          0.000904679523
C           3.72946642901837    4.99982388938475   -5.11526227336512
O           3.33925375880738    4.96046639427553   -3.76224276046981
C           3.86782957280200    4.03415305625097   -2.92955562731694
C           3.24939700060737    3.95676297905524   -1.65972273794541
C           2.17476924640524    4.76972276784885   -1.23612875124990
C           1.76725868844661    4.53438350210017    0.04424789860851
C           0.74810454733782    5.19522748098230    0.81742884762132
C           0.70700466037000    5.05226645514523    2.19484964346285
C          -0.22855887096728    5.71109677427670    2.97900164441223
C          -1.19414604263761    6.54443944511013    2.43708919885691
C          -2.11838032598491    7.24112518292993    3.29345122915650
C          -3.26828863854421    7.90542195895185    2.98272511351978
C          -3.91335189078172    8.49758480538565    4.09177090371422
C          -5.11382543428256    9.24087390551361    4.02414317534446
O          -5.65136086770064    9.33274407405061    2.78592905735993
C          -6.88018584307619    9.99400262247749    2.59051450521939
C          -5.57320788706426    9.77943032837353    5.21416315771443
S          -6.99030271038274   10.76441360730435    5.50786607067883
C          -6.65115902585829   10.85471183788528    7.22562652638782
C          -7.49494422115457   11.63355962515786    8.04234178962584
C          -7.58435588258841   11.69665446509159    9.40454425097272
C          -8.21840446108665   12.89830573799391   10.00879222998573
O          -8.86561122465377   13.74005215962031    9.43816573849747
C          -7.83583038039759   12.84821760688914   11.44323125179809
C          -7.14122697603454   11.65251574128841   11.70288680475214
C          -6.64219049230320   11.38352786136186   12.96523047336052
C          -6.85091443024895   12.32591420005631   13.96252681614797
F          -6.36703049649886   12.09526237109177   15.18500212929469
C          -7.54712090504456   13.50947640808677   13.72715809302433
F          -7.73123983713433   14.38822737980360   14.71545754288899
C          -8.04713244410151   13.77412020847181   12.44939556759113
F          -8.70639687533570   14.90619116552280   12.22898542631748
C          -7.10200738146179   10.85685547173658   10.47259799773039
C          -6.88334369347033    9.50325454558007   10.42550346220265
C          -6.46852943096944    8.72836547616383   11.52734671646103
N          -6.10250283787797    8.05591136204821   12.38244626415980
C          -7.12448723215433    8.71459652685460    9.28254043388721
N          -7.34268654069738    8.02884795806433    8.38855217766594
C          -5.49271858225485   10.18066411481521    7.53525500255730
C          -4.87035391652600    9.57296789685163    6.43438229870097
C          -3.68161860312020    8.80702898880222    6.50619359777993
O          -3.15462360509333    8.69963646953070    7.74598886991186
C          -2.04994710803838    7.85606389378988    7.97986258806734
C          -3.22135955999355    8.27961010166103    5.31142801464260
S          -1.79067827112320    7.31543665775123    5.01614778113090
C          -1.21017395192502    6.69672629661535    1.01735414597123
N          -2.12459771121795    7.49544537350688    0.43778238379638
C          -2.12107492756583    7.61298907438786   -0.86243913125693
C          -1.19570234377332    6.91767422657621   -1.65849967415775
N          -0.28182986284247    6.15155246162777   -1.12729468588652
C          -0.24422078043386    6.02353448117579    0.21144558541845
S           2.71327487972794    3.25684897995969    0.78419421298427
C           3.67227200864843    3.03988253648295   -0.66424099488313
C           4.70597604737643    2.14505396201963   -0.89765288252594
O           5.21269687574331    1.19921947942190   -0.07956884809700
C           4.64542897961477    0.97069665226790    1.18995918677636
C           5.33552697747940    2.23295706362383   -2.16233597065934
C           6.41989482670581    1.44283342015400   -2.57951397603789
C           6.86362837023502    1.71617737171942   -3.85104834015273
C           7.97783604963973    1.11734097425939   -4.47809780028121
C           8.38468532780306    1.20487175152001   -5.77709534058964
C           9.80747189877721    0.94788261536548   -6.11777663287958
O          10.63677691896028    0.41120236049973   -5.42727695308444
C           9.98217584170009    1.55464612864044   -7.46441428854309
C           8.73892501879447    2.00837641936050   -7.94494978749695
C           8.63892107346473    2.64262244627503   -9.17052559471759
C           9.80108255981711    2.81832392576921   -9.90812159080639
F           9.73511666740532    3.44068562669658  -11.08734903705859
C          11.03914524255388    2.36802085797435   -9.45433800784694
F          12.13379414174420    2.55250851921424  -10.19711194558788
C          11.13086859948425    1.72612093852036   -8.21650838345926
F          12.31522614716005    1.30117701867191   -7.78941092607708
C           7.70812548639462    1.65518958354511   -6.96902514953814
C           6.37140920723049    1.51547381574443   -7.23970032728921
C           5.75961752165211    1.94049308680366   -8.43503521118210
N           5.20936500576753    2.29965545036055   -9.37627239108504
C           5.48168128168044    0.83158187243493   -6.38232359105935
N           4.74747057724677    0.21401774486613   -5.75261833390445
S           5.95816850985664    3.04283641950026   -4.55989438053070
C           4.92767412940174    3.17339877492613   -3.14871525710468
H           3.09029888784389    5.75131946998648   -5.57644296197553
H           3.56861697414786    4.03781893432231   -5.60880758321220
H           4.77491692516558    5.29978374792330   -5.22844461573057
H           1.72622524590230    5.51223613769369   -1.86713288987771
H           1.43798221113334    4.41999207588055    2.67795945735089
H          -0.19986970925055    5.57096832184208    4.04994643391149
H          -3.64917925108519    7.98002497920568    1.98270549448578
H          -7.09655779511251    9.88604545095117    1.52863823080646
H          -6.81272242424999   11.05650680760605    2.83795265028734
H          -7.68332490903037    9.53302272319205    3.17057318265837
H          -8.11999838235096   12.35303481507690    7.52099218437803
H          -6.09534664844439   10.48574925231467   13.20204614742197
H          -5.05323417685035   10.15938197491684    8.51555265431315
H          -1.88495005537103    7.89089238411768    9.05580364424753
H          -1.15408964844665    8.21167748907060    7.46434998961810
H          -2.26107543081685    6.82702669031518    7.67964471496843
H          -2.86732385871192    8.26739645063248   -1.29213887781061
H          -1.20137465216709    6.98901463089493   -2.73766071443942
H           5.21184936330592    0.14153979597829    1.61145372766882
H           3.59230462127345    0.68901769206151    1.11544541950501
H           4.74500364191871    1.84406475965597    1.83944261252950
H           6.84611016484439    0.67395231765392   -1.96113816047222
H           8.66077075032446    0.59788128498453   -3.81309710433893
H           7.70563058412775    3.00988864428190   -9.56488186066685
