93
 SCF done       -216.739431458470          0.000571367319
C          -6.30158816027598   -1.43206862263253    1.20549248147475
O          -6.59067604970359   -1.06107208804063    0.09290064478174
C          -6.19976815644821   -2.83934367975799    1.66675015003107
C          -5.87290290224530   -2.87533106358834    3.03324447408029
C          -5.73786262971316   -4.08443342886853    3.69436159711179
C          -5.93367245060442   -5.25020832610458    2.96769056152506
C          -6.25622959124261   -5.23236658833151    1.61202855844135
C          -6.39310295738419   -4.00872770754687    0.95199147074236
F          -6.70675296978928   -3.99503088854541   -0.33791653482687
F          -6.43753853173478   -6.37663037819227    0.94984992477755
F          -5.81498398009937   -6.42684292467637    3.58522327209824
C          -5.73639486327120   -1.50074098790316    3.51428368193115
C          -5.30432065304866   -1.13763449663826    4.76319776672294
C          -4.99070314712387   -2.05223418800213    5.79143811770324
N          -4.73070949958802   -2.74392959684721    6.66920305376827
C          -5.07954834109283    0.18915077664579    5.19069427376091
N          -4.85369061613319    1.23611654062821    5.60397140668930
C          -6.05688591198931   -0.61372496675968    2.41591855439337
C          -6.29185211205920    0.73153532727422    2.54724250392790
C          -6.51675810257945    1.69954574879928    1.55424052326056
C          -6.23327394359496    1.71635863874761    0.19064044403164
C          -6.62318963215267    2.90204866466170   -0.40859137655166
C          -7.22570460992634    3.81428258645036    0.49461158230236
S          -7.25361927279056    3.22046079616640    2.08586573186677
C          -7.65829738391848    4.94887878630658   -0.22178449192113
C          -7.32419839535024    4.76565297285528   -1.58256274924982
C          -6.63880967709037    3.49157587005227   -1.73751189019150
C          -6.10413560787307    2.97759356798689   -2.88103776604799
C          -6.19727597986558    3.65228536664360   -4.11783584679175
N          -6.27382657663168    4.19460577688741   -5.12493247608302
C          -5.39031582058123    1.75898947455924   -2.90656806448856
N          -4.78118121752097    0.78909413399300   -2.94255887386625
C          -7.74502135969547    5.81614129739866   -2.38291816819250
C          -8.40418778959156    6.79711738911678   -1.64796398481211
S          -8.48535056680792    6.42403259448026    0.06245850918831
C          -9.01323570632998    7.97280499851675   -2.15373543177388
C          -9.68715982834472    8.86551222539335   -1.28579868864360
C         -10.38288376464598   10.01783519694852   -1.76541250087395
N         -11.01701515240649   10.82102959100211   -0.89455983032986
C         -10.98301634493191   10.53581554665081    0.37780707127830
C         -10.29774774746151    9.39841919761273    0.85088739676367
N          -9.67589223712035    8.59710472408969    0.03080502039861
C         -10.44818020415004   10.34371129542723   -3.14158322048406
C          -9.73911609145414    9.48350155600224   -4.00917142110616
C          -9.03223420620496    8.31860115369082   -3.52323635548172
N          -8.44687815812118    7.65351020342588   -4.52175833292164
S          -8.74119635070556    8.39875427314301   -5.90725542807620
N          -9.62915844799246    9.60108776030232   -5.33447995772597
C         -11.21625603267120   11.44925777101662   -3.58511207136874
C         -11.41452492041937   11.85291163849425   -4.90183223681956
C         -12.27195119231392   12.93882193298487   -4.98550102691498
C         -12.72565025915381   13.37722182259361   -3.72066901690899
S         -12.08946498869905   12.44145382465455   -2.43337408744477
C         -13.60773609568274   14.46175344470484   -3.91924534811768
C         -13.72209164726633   14.70509068393469   -5.30879756466935
C         -12.87092427740991   13.76682709904131   -6.01892981536162
C         -12.66898453534153   13.70545237268613   -7.36648756735140
C         -13.31780546783487   14.60292063787764   -8.24105765273682
N         -13.86103603200039   15.34009177453185   -8.93122648266916
C         -11.81313183929819   12.75326265779561   -7.95948463034940
N         -11.12452589893932   11.97252122787216   -8.43937477677527
C         -14.57863907120638   15.75003365381585   -5.60826594920765
C         -15.12383620631838   16.32983135734527   -4.46612895290912
S         -14.56739537676350   15.52310204558983   -3.00017823774125
C         -16.06525184886929   17.36829638037256   -4.35905000271845
C         -16.48692224176329   18.25894981104223   -5.30635897383116
C         -17.79505708663206   18.93755001537553   -5.09310426951679
O         -18.43465452271354   18.96354147146245   -4.07211152639284
C         -18.14166761049429   19.51423407057336   -6.41539372404726
C         -17.07181548978767   19.32059734993229   -7.30869839766509
C         -15.97107078341972   18.67355479785733   -6.58922761357689
C         -14.65785732010428   18.71335981840626   -6.98017091290331
C         -14.21256433752619   19.26311760782250   -8.20162605269538
N         -13.79910166990156   19.70383824472325   -9.17627685785759
C         -13.58831273660168   18.29888863458714   -6.16182895899900
N         -12.69099259516768   17.99121091933957   -5.51567138020474
C         -17.16561475711467   19.72722475031735   -8.62767457880506
C         -18.34272614126889   20.33832192852584   -9.03710204882020
C         -19.40683233646466   20.55391283379048   -8.16288696471941
C         -19.30572704861623   20.13508598873823   -6.83388349034505
F         -20.32549669490271   20.33475971638164   -6.00678878569860
F         -20.51942789754192   21.15122197044745   -8.59460876234908
F         -18.46470521680542   20.72914395990305  -10.30608183719088
H          -5.49562831717592   -4.15978829771979    4.74136815391370
H          -6.35923639658472    1.11610565140775    3.55843868885233
H          -5.76692934755361    0.89402072908801   -0.31859828144197
H          -7.61057882287117    5.89769185009826   -3.44585325233786
H         -11.50191484394748   11.20872704476374    1.04486736849263
H         -10.26154377578985    9.14882888638757    1.90134386275337
H         -10.94688111453292   11.34911811408839   -5.72781754502383
H         -14.84840239382240   16.05173895795438   -6.60348942014679
H         -16.60148569463025   17.43094122348521   -3.41662810951967
H         -16.37602341801034   19.57831758519954   -9.34579629332464
