110
 SCF done       -188.768060707965          0.000518895693
C           2.30411111320225   -2.35288458618012    0.43289550400498
C           1.68871214868399   -3.53469245040295    1.08914056585967
O           2.18040493943637   -4.19508772213755    1.98201784710711
C           0.36391734988880   -3.69110291804972    0.45588326870912
C           0.23578439923065   -2.75633780940694   -0.56918065779684
C           1.48049571378350   -1.99362721326363   -0.68146045967718
C           1.85038198099275   -1.22494496900702   -1.76158126481749
C           3.16979354131594   -0.78815232707709   -1.96652745570728
N           4.24228026320582   -0.42657518939630   -2.16616748021706
C           0.98819900899572   -0.82164266468009   -2.79567579343430
N           0.33105519527180   -0.40237687455575   -3.64058051651021
C          -0.94238876957413   -2.68348399852049   -1.32187371608200
C          -1.96727502131046   -3.54631085568226   -1.02865284564973
C          -1.86596989626211   -4.50855625437324   -0.00127982853467
C          -0.66984339924941   -4.59308995019824    0.76920367266089
C          -0.57135236954363   -5.55660830873883    1.79431805898119
C          -1.61562977839020   -6.40199328353397    2.04589444949595
C          -2.79684303160523   -6.32313202574412    1.28978485464732
C          -2.92035934999149   -5.39879679339102    0.28990822034841
C           3.40972871228057   -1.78929586362351    1.01946633865103
C           4.01822241362971   -0.53502571703081    0.88815087094167
C           3.45750883642282    0.62822592263539    0.41121705637819
C           4.31215797040712    1.79853831841000    0.39033379452257
O           3.83544771348148    2.98277804569383   -0.07688245293856
C           2.70637820794437    2.84021690643024   -0.91026818564412
C           1.65362012786103    1.99721905793516   -0.20285137290388
O           2.15964131493371    0.69944163800551    0.05779544364836
C           5.55038812226929    1.65812909910820    0.93493424024789
Si          5.76987879519137   -0.13712985266688    1.48791644362994
C           5.92761417711597   -0.42500159033023    3.36467244231032
C           7.11852515447604   -0.99889743871107    0.46787058431992
C           6.56780060002682    2.67478147899892    0.96487892836967
C           7.38851225987676    2.80686644952599    2.07857371892164
C           8.37268115716787    3.78024587274426    2.18720606379306
C           8.61246489500028    4.67303427137673    1.15017038497890
C           7.82287738673475    4.53364987657982   -0.02519440933539
N           8.07573538918162    5.36491634181779   -1.04115373919052
C           7.38922995693241    5.23627465501143   -2.14861130245716
C           6.43332390772663    4.21464829635595   -2.27633281082294
N           6.15770619483210    3.38841883624246   -1.30255655614548
C           6.81112670520132    3.53975508807069   -0.13989654775474
C           9.56174875356450    5.72320495061423    1.08872612256398
C          10.46931727644372    6.09408704825981    2.03180482994078
C          11.34718696839210    7.17766982419900    1.65961681793699
O          12.17279571662243    7.75117349751226    2.57101559041021
C          11.95181492102251    7.35414117215079    3.90905965565915
C          11.73496839627322    5.84797207177419    3.97197295766578
O          10.57137387898556    5.49979157520999    3.24989553870855
C          11.24930333395375    7.62185326408792    0.36876799458823
Si          9.78090364266313    6.69825799565356   -0.51581887571658
C          10.75854384329392    5.88495295668206   -1.94041218418936
C           8.58462398562270    8.14252888884923   -0.89459516390001
C          12.03432664517991    8.60685704401234   -0.23803006148185
C          13.31065518234001    9.05013574817381    0.01245552658052
C          13.74720362715427   10.33353262350269   -0.58981969504838
O          13.17624539446788   10.94493096350894   -1.47070887653097
C          14.97850758124967   10.71156040148257    0.13564509712789
C          15.30801880199385    9.69644032411047    1.03066023852681
C          14.35406002821797    8.59598884540535    0.88091115865500
C          14.54095126565819    7.31917691066953    1.36011967800414
C          13.80098076802522    6.20842356826600    0.92380348517762
N          13.24646021719081    5.25781913467665    0.59104292784229
C          15.51309231517546    6.94714081315445    2.30485250088820
N          16.23275155605969    6.57536184321719    3.12080927511379
C          16.42693103838240    9.81748531829664    1.86362005767511
C          17.19214358712586   10.95218584231073    1.78082270670866
C          16.89298696412819   11.99212386870620    0.87513042002197
C          15.75580009062640   11.87929183220006    0.02322343411029
C          15.46274890856742   12.91964479484259   -0.88280693470883
C          16.26403062907678   14.02541731807218   -0.94299862031243
C          17.38549262158716   14.14191499060136   -0.10518490328350
C          17.69309062685010   13.14981046786797    0.78374499089502
H          -1.04985242237552   -1.95798695188897   -2.11213593239879
H          -2.88585435068418   -3.49891562797033   -1.59604304281864
H           0.34104721859398   -5.60653693985074    2.36734493646667
H          -1.53979779160105   -7.13962706444579    2.83105546827674
H          -3.60935890456377   -7.00129059519407    1.50590582736536
H          -3.82786093698560   -5.33699027007476   -0.29361097292052
H           3.86420537037490   -2.43519645597149    1.76640981936464
H           2.33752650451627    3.84701182260154   -1.10941921988943
H           2.99742418804358    2.35742437708158   -1.85267072722116
H           0.76392040738414    1.86018037931955   -0.82090612095193
H           1.37260569959582    2.47253875359561    0.74636739687772
H           5.27778988082683    0.23168261031806    3.93559003902732
H           6.94765000514656   -0.26722920063884    3.69923570275254
H           5.66090300299242   -1.44805437009873    3.61048517896230
H           6.90241375987412   -0.91481415751511   -0.59334140665228
H           7.18582285011274   -2.05387418997485    0.71418369698996
H           8.09068340126399   -0.55130682385268    0.65002571985092
H           7.22399033139796    2.13432117612816    2.90699711267068
H           8.96263633909965    3.84974297971820    3.08645520044843
H           7.60545659157764    5.92896824959900   -2.94788836138808
H           5.89498773015508    4.06792198612022   -3.20259488189648
H          11.06945941115988    7.87251346819729    4.30889412620402
H          12.83913384021800    7.65330024297764    4.46976843496667
H          11.57585994567029    5.51057967611559    4.99725309041832
H          12.60552308606693    5.33287160356062    3.54398847997307
H          11.60262582173124    5.33594551353026   -1.53373082768781
H          11.16006960715649    6.64981918015832   -2.59704981681745
H          10.17215379425775    5.20143537190688   -2.54268007215387
H           7.60512611472509    7.98520144888717   -0.45672811547750
H           8.45170477932143    8.24799086035258   -1.96492499129283
H           8.97049843208022    9.08370576530082   -0.52020570505835
H          11.55119136750386    9.13731148160547   -1.05459514767434
H          16.68119415947531    9.03954728701779    2.56526379591387
H          18.05559422143466   11.06378235532147    2.42118314885254
H          14.59857623709776   12.81779536151732   -1.52012344590444
H          16.04006037590981   14.82094807216651   -1.63821733834224
H          18.00482558837322   15.02462380944087   -0.16961639895191
H          18.55590174044495   13.23630941859150    1.42882430363894
