111
 SCF done       -205.298798748604          0.000422093312
C           4.79430097224301   -0.10055326102827   -3.65005833345619
C           4.06856240703908    0.85149191355150   -4.52352941280817
O           2.86450026009198    0.95709830130790   -4.63268310267836
C           5.12399391482339    1.66465459710821   -5.16667753947326
C           6.37543385634354    1.16035285029731   -4.81468199551774
C           6.19238619997756   -0.02216612036170   -3.97786050287419
C           7.11120462511404   -1.02023426722987   -3.77451132706061
C           6.78192039388160   -2.26570224954625   -3.20386881522590
N           6.56813238072941   -3.31943176086621   -2.79999362729307
C           8.45580471389274   -0.95382521267609   -4.18682595663930
N           9.56466335862739   -0.94100708907860   -4.48584099218448
C           7.54885961751911    1.76842983810408   -5.27709219866351
C           7.44416638403933    2.86916857155805   -6.08724359524011
C           6.19338098826092    3.39798772022074   -6.47312927025447
C           4.99270971763491    2.78827844882837   -6.00472548030928
C           3.74685871492413    3.32283488429987   -6.39287789205589
C           3.69245138124161    4.41508702909248   -7.21342360033881
C           4.87211281533575    5.01861964148615   -7.67889733323512
C           6.09421749622623    4.52290464859958   -7.31745953974709
C           4.15407126731156   -0.83359004572060   -2.69313026146591
C           4.70116465974637   -1.36117020395409   -1.50586339519246
C           4.17733678103376   -2.46673797796725   -0.88662572314830
C           4.68389664986615   -2.79576586169044    0.42525857199058
O           4.12795711626652   -3.78445040452442    1.15151515331995
C           2.98780946203707   -4.39960210796066    0.58455722754154
C           3.15501903842082   -4.54381987885859   -0.92204935407940
O           3.28326362185196   -3.26249574025292   -1.50844859826644
C           5.67482436196575   -1.97463241966573    0.90249765083329
Si          5.90860347451335   -0.50926049661671   -0.28340592811317
C           7.72281989465373   -0.27725871740533   -0.79965782597217
C           5.01302947753119    1.13802261219127    0.07984729609487
C           6.40414508055551   -2.11921419709823    2.10734133892025
C           6.66620944921546   -3.31945338349017    2.80611781261568
C           7.41923877415811   -3.31672146001038    4.03329363125725
N           7.58563939913415   -4.46931251925999    4.70179133012405
C           7.11612618113067   -5.57734382830073    4.21764928427240
C           6.46921113053950   -5.58462052027787    2.95858241704661
N           6.26127098437732   -4.49677290363499    2.29580016581542
F           6.05370362948788   -6.73284049076464    2.41939485538501
F           7.26659208696946   -6.69077063234208    4.93389892757804
C           8.02769554939669   -2.16629076574356    4.59641668765462
C           7.77730480571035   -0.96283999503427    3.88741528506455
C           7.00161337195013   -0.96761990944708    2.66912608520582
N           6.87607020964675    0.25094005177787    2.15127154366124
S           7.64509873413140    1.30370356281624    3.10333414465534
N           8.16269911189586    0.26897374465447    4.20819827133226
C           8.75281909401289   -2.36017849462743    5.78571602130597
C           9.56712930345563   -1.47615561961057    6.45112215515036
C          10.11092200274815   -1.94577375887711    7.69937171768821
O          10.73999156146410   -1.09580447658768    8.54740954613479
C          10.67785342173990    0.26912053952197    8.18429055112563
C          10.91293489286631    0.40742138387588    6.68586852899417
O           9.88536402939589   -0.25622918256411    5.98149491994479
C           9.89191495886634   -3.26365685247755    8.00988633573531
Si          8.82387375393844   -4.06528280552354    6.61722146377069
C           7.25697817813883   -4.67401011768072    7.52251837692143
C          10.09454338282806   -5.30716799345527    5.92467402135936
C          10.33125672925508   -3.93795195940091    9.15382194538807
C          11.37494801166192   -3.71282737043175   10.01705599616393
C          11.34819076336053   -4.38109016505443   11.34431750303837
O          10.60901636018191   -5.28478238020310   11.67608162193705
C          12.36363601732417   -3.68135899213098   12.15679375005494
C          13.02527099941415   -2.75158932780421   11.35734368375521
C          12.50916977771871   -2.83861367997101    9.99036104336054
C          13.11813074802919   -2.30545504456442    8.87773667215450
C          12.77687848664543   -2.65672069730850    7.56171091479882
N          12.54997023235039   -2.91234516804472    6.46410324104322
C          14.17367012674839   -1.37639461887685    8.90412439790660
N          14.99151154688725   -0.57104445096151    8.84205659732321
C          14.03102068774685   -1.93940113538045   11.89513213156177
C          14.34895173422577   -2.07386427200542   13.22226279701056
C          13.70117129420509   -3.00953289611950   14.05679324336966
C          12.67805827868424   -3.84363516896497   13.51886057699321
C          12.03390490006610   -4.77867803291707   14.35527713616703
C          12.38898320930844   -4.88272945277660   15.67125264164564
C          13.39595071939490   -4.06275885721261   16.20677721719026
C          14.03759824878386   -3.14748976500821   15.41929600034771
H           8.51625483614250    1.38548894503815   -4.99442163591241
H           8.33862343531059    3.35519805127762   -6.44961763978103
H           2.84828729537903    2.85005671212941   -6.02907688952130
H           2.73798197701823    4.82312172402331   -7.51105399882266
H           4.80580624112468    5.88023160600841   -8.32683668968135
H           7.00338308021319    4.98464972529021   -7.67510126539055
H           3.07790439320978   -0.92383215916860   -2.81965100781184
H           2.89305794203548   -5.37177629167231    1.07121111951708
H           2.09707995519468   -3.79192024421367    0.79954132798469
H           2.28136543760052   -5.00798351714926   -1.38083333442494
H           4.05223631261911   -5.13660399452435   -1.13997272514759
H           8.16354161414317   -1.19857024286530   -1.16631757024028
H           8.30653737810140    0.04748813076038    0.05387031108358
H           7.82132513431742    0.48293558669112   -1.56680418223025
H           4.19713949969296    0.99784251790454    0.78123258039485
H           4.59499206719163    1.54573441983262   -0.83606117588158
H           5.68772292081196    1.87309143730544    0.50089573900617
H          11.45088742128996    0.77736209439299    8.76337528487051
H           9.69164442477891    0.67729237602754    8.44317898590013
H          10.87980246505884    1.44961912171383    6.36618960634512
H          11.88619882708070   -0.03027645286420    6.42516262204757
H           6.35804520359117   -4.20144947664642    7.14052123560571
H           7.31115536056533   -4.47458144223136    8.58724958264754
H           7.14506035353662   -5.74420581372901    7.39384208935972
H          11.04158514472737   -4.80373175042589    5.75036916192670
H           9.79109095311150   -5.78353389920390    5.00103632661787
H          10.27278308085530   -6.08968962160114    6.65536618385758
H           9.72013958277391   -4.79039360348018    9.43975379335225
H          14.54289650133869   -1.21397152744194   11.28374529561950
H          15.11901211430084   -1.45042266808854   13.65382718357786
H          11.26212650479282   -5.40175030241579   13.93169932390983
H          11.89564848521605   -5.59901697095526   16.31135583238191
H          13.65992206331830   -4.16177655788061   17.24947676844506
H          14.81332404043239   -2.51630909362531   15.82879893189833
