94
 SCF done       -180.394128541960          0.000963073425
C           3.13737416808921    6.78109576435980    0.57044433810392
C           2.71819092769666    7.22938635151953    1.92946030457642
O           2.11294846375646    6.56715579848935    2.74304416888966
C           3.24949348170675    8.59875830181502    2.05908211275418
C           3.79901692856092    9.00360919145521    0.84152757197506
C           3.59361112917174    7.95292592059079   -0.14869722014796
C           3.54915255716304    8.12967333854696   -1.50557025117941
C           3.05225183101261    7.15040242029420   -2.39214911209709
N           2.60204501830977    6.39633241761771   -3.13114986616143
C           3.89298038134132    9.32941513378309   -2.16030489036651
N           4.17446848172222   10.27638332266114   -2.74476741829365
C           4.39688389201918   10.26301210538490    0.70853405388699
C           4.42628770513818   11.09431857764458    1.79750136412466
C           3.86646334370031   10.72300572155312    3.03986149302267
C           3.26033385085715    9.44123485077776    3.18799960799434
C           2.70694398733931    9.07499818580984    4.43162191414028
C           2.74895299016917    9.94546205372523    5.48565572921516
C           3.34270479354869   11.20997634927928    5.34485499493877
C           3.88972337491591   11.59081971060791    4.15047528642884
C           3.13744111006879    5.46198246759753    0.25329148421452
C           3.85536108463456    4.80560613672546   -0.77968943667120
C           3.55647846265796    3.57638412356978   -1.33195579977750
C           4.47882101523669    3.19851476497722   -2.30542280749478
C           5.52601607477665    4.11526617104741   -2.47085551654440
S           5.34946171428823    5.47253820940119   -1.43131889596625
C           6.44037568863387    3.70652931814966   -3.44306898443412
C           6.08515184669928    2.48623412296247   -4.02946703896501
S           4.61846659182908    1.82419288502775   -3.36539030502105
C           6.97093514004208    2.06040485084535   -5.02230852472110
C           8.01387743329986    2.93958603745429   -5.20007060981951
S           7.89794493775126    4.32348749472134   -4.11524189333535
C           9.11983011766382    2.87410965534699   -6.11680931545691
C          10.20515547653990    3.72354888828741   -5.96182961712489
C          11.27971444424336    3.72152416988086   -6.83584941205440
C          11.34026401808535    2.87984255033659   -7.93653165032435
C          10.25117109631310    1.97613574467242   -8.12984445653091
N          10.27160062989161    1.11418341976365   -9.16262777800691
C           9.26550740894189    0.29637885160979   -9.31892984315552
C           8.17039680958428    0.30672677623971   -8.43990100082047
N           8.12356308833858    1.12158864703365   -7.42052064903245
C           9.14884897394388    1.96986288466272   -7.22197888602350
C          12.46391437524940    2.94008695358904   -8.83170956014104
C          12.60910541886734    2.39574786033039  -10.08711775572219
C          13.84394893473712    2.70979616360479  -10.65905335126662
C          14.66324698709329    3.49254464090392   -9.83762901534391
S          13.88948162206411    3.85307056549703   -8.34460171817665
C          15.88591033428467    3.79887652949102  -10.43890233650718
C          15.99435043100553    3.24944414065573  -11.72629653013900
S          14.58022210624893    2.34763943455399  -12.19524554720519
C          17.20533463688325    3.52428556045194  -12.35162153584041
C          18.04310593946236    4.28458805674531  -11.55385583721678
S          17.29305526319697    4.68349215648260  -10.01280969636610
C          19.32333111688097    4.82086106698587  -11.81686976652500
C          20.23353550748128    4.50548182074432  -12.77715264998079
C          21.31130849301727    5.49021200736858  -13.08476631592522
O          21.60661069651311    6.45172143877059  -12.40945589751858
C          21.87125122329915    5.06133418687458  -14.37785320721140
C          21.28283463141323    3.85566613836698  -14.76044477669445
C          20.37673513516722    3.40696747948787  -13.70517527694943
C          19.97180090372888    2.11241809024256  -13.50835991559123
C          19.34558583687855    1.66577213883792  -12.32728099448910
N          18.86699946877500    1.25329875885631  -11.36908338928508
C          20.21192704648470    1.05854995965997  -14.41352220263299
N          20.35997245183992    0.16218311472210  -15.11539258936635
C          21.62019116106093    3.25329815835668  -15.97914699978078
C          22.54758353534635    3.86567831844467  -16.78162126336073
C          23.17812489522964    5.07427132606965  -16.41333705993922
C          22.83633447952160    5.70083821077144  -15.17953014883567
C          23.46725509050347    6.90769795786197  -14.81488715912289
C          24.40294009047773    7.46954405920460  -15.63882760872059
C          24.74393655616532    6.85662064017274  -16.85541956177596
C          24.14536594739039    5.68698693486394  -17.23580989697372
H           4.83650599202500   10.56772624570119   -0.22741200769609
H           4.88810484049114   12.06768413370964    1.71573313292749
H           2.25386595136129    8.10101558137836    4.52816044075201
H           2.32360523216615    9.66483927546380    6.43752104780168
H           3.36429132111775   11.88165890878541    6.19027648070095
H           4.34679172393091   12.56349519298586    4.03944379766557
H           2.57642920774270    4.81639870022877    0.92220173515969
H           2.68532811643354    3.00836977180634   -1.06245156880384
H           6.86731390006126    1.15976158059953   -5.59572265024357
H          10.21523674401761    4.41352969449804   -5.13062250448195
H          12.09251938489932    4.41064262851153   -6.65827237219862
H           9.31932285627181   -0.38505592382439  -10.15717901145011
H           7.32712882326223   -0.35833789338423   -8.56921145874407
H          11.84684968596028    1.80261850365149  -10.55389122355107
H          17.44402619668384    3.22364623514408  -13.35511201589757
H          19.60649020294492    5.66715172632009  -11.19686096169887
H          21.15311186662987    2.33248111846965  -16.28874398402214
H          22.81501637501443    3.41733342627070  -17.72761973665431
H          23.19670009817282    7.36911977949709  -13.87831910404733
H          24.88814408547074    8.39238480413739  -15.35798945808372
H          25.48537843939005    7.31826999559174  -17.49062925654721
H          24.40679817007362    5.21335895913358  -18.17108300080878
