87
 SCF done       -176.641455285358          0.000472200907
C           2.01246357866803   -1.38315738711767    3.38362076815807
C           1.12987866648892   -2.32936347088568    4.12775213767776
O           1.18545387238274   -2.56467638361404    5.31445267560421
C           0.18313648991610   -2.84538521306384    3.12468941435901
C           0.53738790264443   -2.36720533245473    1.86237180810341
C           1.76144561154688   -1.57779298631857    1.97192589629307
C           2.62993666937463   -1.31591359578417    0.94530918226808
C           3.92799884021246   -0.79704830428822    1.12872416052601
N           5.00700646490922   -0.41762175896559    1.22426716853761
C           2.37477246156381   -1.61949436558254   -0.40813923344318
N           2.21724757956043   -1.82467499437131   -1.52628058417295
C          -0.22793679349541   -2.69479724493261    0.73570253513642
C          -1.32437023946731   -3.50139053618023    0.89648959863841
C          -1.69991267271705   -4.01585342989532    2.15682648613411
C          -0.93364615688118   -3.68287585692522    3.31177921462076
C          -1.31304071093855   -4.19629414316527    4.56871411799072
C          -2.40697897392720   -5.01001995220350    4.67627086273889
C          -3.16477408155657   -5.34240711877349    3.54176664857041
C          -2.82085393399184   -4.85680868460061    2.31005256471959
C           2.78764768459913   -0.51709843492939    4.08606218608977
C           3.42836908752459    0.67117475575331    3.65796829989540
C           3.12786087189412    1.50451252008698    2.59595762341651
C           3.97573981653653    2.60664379621551    2.54180852474126
C           4.94505893095168    2.62076080988404    3.55577745900027
S           4.77019746391986    1.28087245381838    4.61377101582885
C           5.80704184778749    3.71533642851754    3.44731137643880
C           5.48602594633396    4.54037079042056    2.36170616991093
S           4.11242873938054    3.96464468882467    1.45983470471954
C           6.33602748149923    5.63842413746468    2.22580511310548
C           7.31170580588659    5.64995670862275    3.20088778321121
S           7.17916758124782    4.29665421195582    4.30808545623618
C           8.35604023141314    6.59998688890897    3.36064487502019
C           9.38742426903291    6.58224962664843    4.27744133194840
F           9.53170728907173    5.61990316472294    5.19445270069431
C          10.27351392634256    7.66204790757059    4.15766952298942
F          11.33741107157291    7.82260690400933    4.95160313185648
C           9.94460785679231    8.54762983924662    3.15162548925392
S           8.50122263726425    8.00525313383446    2.34275881991313
C          10.62863640723044    9.73451751801628    2.77399094261154
C          10.23347384987553   10.66475351182101    1.83515485571912
C          11.15254329695423   11.70925351180690    1.72695687085763
C          12.25664012973778   11.57202110352389    2.57811563616880
S          12.15475297471276   10.14446007157767    3.53382473797770
C          13.16251873656013   12.62763018741822    2.44793448650846
C          12.74379990021737   13.57321480507881    1.49942425419149
S          11.22085891227517   13.15747893174945    0.76247916563675
C          13.63603007251314   14.62701443641785    1.32898613426138
C          14.75003009925695   14.50065601718964    2.14043143752894
S          14.66468261599141   13.06398270348268    3.15159464521453
C          15.86667638937029   15.35039907500536    2.31513146512518
C          16.34812651025585   16.35819736674949    1.54077146807180
C          17.29955762483149   17.32978869722334    2.15764584416315
O          17.87059139126728   17.18527988969785    3.21591181743237
C          17.33525469265544   18.47680143075342    1.23558375567793
C          16.58047386434298   18.18221567473810    0.09957185608055
C          16.08808620739027   16.80929647922941    0.19196919791134
C          15.70876107671376   16.03183305161357   -0.87084242019282
C          15.52395227695088   14.63712390801154   -0.78632137863562
N          15.39959843770884   13.49623667857903   -0.76892720479220
C          15.55060096763541   16.50971844743960   -2.18808995100770
N          15.38402387266978   16.84418998874118   -3.27339637486913
C          16.42644749563224   19.13188786900808   -0.91852636650633
C          17.04215824849290   20.34906988399561   -0.78210365380672
C          17.83223907002963   20.66956514398623    0.34358699999107
C          17.98789362199763   19.71499746428755    1.39057300111628
C          18.77653873969926   20.03753620877462    2.51370443512898
C          19.39035159059345   21.25695394066652    2.59412207272927
C          19.24128835665296   22.20113294922001    1.56541656286309
C          18.47917284536895   21.91615896213066    0.46580134251743
H           0.03091062108838   -2.31288730192282   -0.23843479488570
H          -1.92767749397440   -3.76036520160620    0.03841563378479
H          -0.72345159983596   -3.93424919468284    5.43296347850669
H          -2.69643344305920   -5.40427564138092    5.63885225900691
H          -4.02466103184537   -5.98672209699008    3.65013973615844
H          -3.40192539965970   -5.11177383139546    1.43562196592713
H           2.88037571745662   -0.74648561197995    5.14380821994979
H           2.30878362343416    1.33900767331486    1.92007830120777
H           6.26122111527448    6.38734025006292    1.45908702413851
H           9.32422065046013   10.57986983199742    1.26916200108342
H          13.46005311380812   15.46368767547785    0.67830122333376
H          16.40107461002522   15.21963610248850    3.25251711385779
H          15.82687241047202   18.91784729548879   -1.78834417037604
H          16.92929913204944   21.09456026032428   -1.55597530149119
H          18.88348677547984   19.30431106554044    3.29737389607599
H          19.99685539651144   21.50266274216565    3.45294759218022
H          19.73528846469152   23.15775229380073    1.65004124756216
H          18.36383394858186   22.64099820883664   -0.32702806836874
