91
 SCF done       -178.274369781968          0.000564631223
C           3.93661113669153    2.57505111823215    0.94587193134679
C           3.49218170894721    3.98584453456595    1.13796161579789
O           4.02466054944454    4.96787999260151    0.66936719805755
C           2.27042590563497    3.89859326863964    1.95733624284326
C           2.06692381614108    2.57431961081679    2.34610340404124
C           3.17569367208610    1.75536661739762    1.86167934459610
C           3.55896924234812    0.54987722470425    2.38912966776944
C           4.78484865380127   -0.07788211823637    2.08850451960878
N           5.78655302660536   -0.60729355671978    1.90505833946035
C           2.82606630469648   -0.15917747815795    3.36265793194537
N           2.26380692181015   -0.78915416862861    4.14042945397297
C           0.94625160080399    2.21815007534181    3.10694255446632
C           0.05914763570428    3.19786980081818    3.47008581161702
C           0.24588008612138    4.55038943888555    3.11002201593022
C           1.37893729813799    4.92332186261361    2.32973883711820
C           1.56032150217378    6.27456092659828    1.97096270380114
C           0.65634319300808    7.21912526675428    2.37202016179068
C          -0.46144128230693    6.85751902996191    3.14107612667353
C          -0.66369812729181    5.55372493308402    3.50169177143638
C           4.84301727905176    2.29793792173836   -0.02970323838624
C           5.14988582062395    1.06765644585569   -0.65434577173422
C           4.40805354925509   -0.09913454861954   -0.72791985859321
C           5.03682189530179   -1.06989410085886   -1.49811813314304
C           6.27522447530471   -0.66450485965948   -2.02157036376958
S           6.64213770851100    0.95242576213115   -1.57793614363802
C           6.88757429835433   -1.66839130422968   -2.77621774207100
C           6.11189431323931   -2.83330050695833   -2.83062311446737
S           4.61768293351320   -2.70003681804706   -1.94408941243641
C           6.68797913136996   -3.84973368020696   -3.58917513101274
C           7.90724387401296   -3.47373107191689   -4.12028157190106
S           8.35279417307270   -1.84233155074631   -3.67029938563504
C           8.76480478032934   -4.24748839500194   -4.96925044626983
C           8.44997504769191   -5.52500016235013   -5.40833347249975
C           9.27538515954564   -6.24594085200909   -6.26605716665501
C          10.47996885526059   -5.76169490588706   -6.75432607397532
C          10.86633830200099   -4.46240686819193   -6.31031607498812
C          10.00386550283912   -3.71494380119437   -5.42550145185210
N          10.46716930037734   -2.51986634135542   -5.09278123315751
Se         12.01372902646215   -2.25576810468314   -5.86163749688814
N          11.98080003983225   -3.82224685216659   -6.63813433222707
C          11.27679870709938   -6.51557219105381   -7.67710685160357
C          12.48472399953139   -6.16876232921280   -8.24072647302355
C          12.94500139291524   -7.13585183258432   -9.13461609994259
C          12.09260362411359   -8.23930238160972   -9.26389051445133
S          10.70581490186102   -8.07666276046089   -8.25591258399280
C          12.56971487969223   -9.17441693430880  -10.18549990803630
C          13.78560026422206   -8.77303524384694  -10.76179623844382
S          14.35524432980386   -7.24709802160160  -10.14855272249475
C          14.26559618897751   -9.65271703571900  -11.72528822976273
C          13.43215623587018  -10.74360252374828  -11.89571735325387
S          12.04598747971367  -10.68374811521396  -10.81597868153224
C          13.58124581052872  -11.86400779484727  -12.74661242128435
C          14.32787579289746  -11.99009680543513  -13.87569329688163
C          14.66547861154261  -13.35468820937083  -14.37456662604508
O          14.15474469877171  -14.39036976143784  -14.00868579573864
C          15.75895792789977  -13.15356556045695  -15.34165157253398
C          15.97444315111338  -11.78665908231675  -15.52056998783252
C          14.99398809648278  -11.03842538157862  -14.73786683479457
C          14.60728830927117   -9.74663902546129  -14.98168153018298
C          13.47412504843370   -9.14354507945790  -14.39846890166153
N          12.53880351597878   -8.61915559492518  -13.98878870971281
C          15.23307424169657   -8.89273119197136  -15.91314813431436
N          15.71318956590034   -8.14605535913858  -16.64086424482970
C          16.98768116003597  -11.32964006092091  -16.37303260884010
C          17.75530828945818  -12.25129126830712  -17.03619589752976
C          17.55124721830196  -13.64107012564541  -16.89196639600803
C          16.52936522966239  -14.11795940375737  -16.01993900509557
C          16.33230017194210  -15.50641458216077  -15.87559365854413
C          17.11419770877858  -16.38711601216726  -16.57083309329060
C          18.12064008428997  -15.92290257548337  -17.43308309186263
C          18.33586447111486  -14.58128933885741  -17.59030967894618
H           0.77507184950241    1.19286035731889    3.39216357403661
H          -0.81388396106092    2.93969677531204    4.05184256343821
H           2.42227287829969    6.54029227451582    1.37977647533552
H           0.79674498036038    8.25424931009605    2.09883105029276
H          -1.16271196559667    7.62001035685752    3.44634778758303
H          -1.52259435440798    5.27300538346499    4.09392360231200
H           5.35494041212135    3.16781938380458   -0.43102273485252
H           3.43792406309741   -0.22027986003191   -0.28185987523910
H           6.23264344169910   -4.81024787391228   -3.73956013471417
H           7.52748726167468   -5.98190880361379   -5.08865930851363
H           8.95552994459841   -7.23048896910544   -6.57555950919726
H          12.99206368131289   -5.25163027414526   -8.01110743361774
H          15.19549267169191   -9.52412175449870  -12.24853286775187
H          13.07884066262086  -12.77236912026753  -12.42751080049272
H          17.17057140354848  -10.27483044316473  -16.49851895449826
H          18.54382801016013  -11.91594418462247  -17.69434944929606
H          15.55626809064868  -15.85131298873355  -15.21071604505850
H          16.96198154932854  -17.45041366894524  -16.46102439033792
H          18.72576292654279  -16.63637706143371  -17.97265547646227
H          19.10923703948727  -14.22139902441937  -18.25344295079594
