153
 SCF done       -273.318734660325          0.000595974698
C           9.25180990581787    5.95679465994557   -1.87641348264248
C           9.40233912558694    5.87129275664959   -3.35707150059388
O           9.75085876068419    4.89411417772407   -3.98230714446798
C           8.98928985086375    7.19319810699135   -3.86385384084953
C           8.73255320664815    8.04435247515495   -2.78829853220703
C           9.04659220286841    7.35069344012675   -1.54335993145603
C           9.35151561858486    7.95655604036943   -0.35325661371364
C           9.96426727311543    7.28115911373925    0.72324605370713
N          10.51887060858593    6.79748911459202    1.60413711554730
C           9.16366581850645    9.32617901981540   -0.08349510134585
N           8.99867762925414   10.42287405025428    0.21415516439986
C           8.29133605122971    9.35623600030147   -3.00443810651910
C           8.13260571464033    9.79281244591999   -4.29360531163058
C           8.40789762147202    8.96581499501433   -5.40479565981707
C           8.84309705054936    7.62440815520606   -5.19660256619891
C           9.11221345967950    6.80144112402091   -6.30915917804774
C           8.96339019895341    7.29060262844726   -7.57754059116037
C           8.53970185250819    8.61262755295844   -7.78845465768460
C           8.26584989006416    9.43157815305603   -6.72763677238751
C           9.21558558202203    4.81668711677631   -1.13849477166038
C           8.73374974657450    4.63708292484069    0.18335584152399
C           7.85115725044396    5.41486594338732    0.89100313473946
C           7.56133179518706    4.92283963316024    2.17830754736390
C           8.22831301735850    3.69620726251711    2.44221081193678
S           9.20602400271949    3.20908084012519    1.08474380969487
C           8.12778021485001    3.02961592618176    3.65131068853249
C           8.87290751324655    1.79682114970511    3.93090565396208
C           9.64095903040267    1.67955619732971    5.08719520352596
C          10.34011393499380    0.51794218046879    5.34808459090354
C          10.29230937624120   -0.55887711800932    4.47042737158930
C           9.52927038000435   -0.43642726374400    3.31546987482058
C           8.83161664269460    0.72413999227229    3.04424941269377
C          11.06639148653614   -1.81018591148103    4.74906247187492
C           7.27735088980341    3.60856031031131    4.61551153548299
C           6.59240300860441    4.82329823412921    4.34371179444310
C           6.73468874441349    5.51383507231019    3.15428126899870
C           6.11316720433515    6.82456318813283    2.93166240171184
C           6.89398360494500    7.90525019839505    2.52874138059599
C           6.32491332408546    9.14748202854560    2.32481663392971
C           4.96361594787942    9.34557871401418    2.51830722288418
C           4.18849865288455    8.26692744714594    2.93178204262490
C           4.75104674958001    7.02356323085953    3.13975073078187
C           4.34142265730309   10.69158734091479    2.31118108398764
S           5.61672377130340    5.32791231543759    5.70147322852115
C           6.13613033781965    3.93687259675347    6.62200086575329
C           6.98680477748228    3.12713935150511    5.90692213036811
C           5.71000197135370    3.74261420621282    7.96976413326624
C           4.75310659558145    4.58439425000437    8.57201534193431
C           4.33733508866157    4.42899638994881    9.93603553029497
N           3.40583470630302    5.26425080834608   10.44109656562358
C           2.90687103404481    6.19296349752995    9.69372449246593
C           3.32449495292707    6.35187175922105    8.34579753484274
N           4.21103335794338    5.56884700476187    7.82563934949932
F           2.80879061915753    7.30900391152519    7.57853239038529
F           1.98847177462740    6.99673239357321   10.22301779485996
C           4.87496646552916    3.43964708826196   10.78384717135514
C           5.82725938123465    2.58191277841974   10.18584381316172
C           6.23127598653891    2.72580866983425    8.80260696432300
N           7.13729245496426    1.80778651210108    8.46037902316091
S           7.44362997884708    0.86574814144506    9.72058482900930
N           6.45551908688718    1.56199755576053   10.77396484641223
C           4.47648325046607    3.32498482455306   12.14914363548166
C           5.02033355208209    2.47919676124843   13.08747745636845
C           4.41342857951500    2.56933697671773   14.35453487136678
C           3.37757777141975    3.54306498408986   14.36823624350760
S           3.18411617082192    4.30053397720849   12.80596294362572
C           2.66311061166595    3.85460193705084   15.50814686066095
C           1.51198668346836    4.76536295121430   15.53021028572440
C           0.43571947220782    4.53333786416164   14.67867712298702
C          -0.71863817738793    5.28164334726597   14.79273815386531
C          -0.83113131766161    6.28501964867315   15.74801035134969
C           0.26455611853717    6.54705101783617   16.56201924682520
C           1.42069114298573    5.79816747638195   16.45926512465068
C          -2.11487905527419    7.03122771829050   15.92481368778401
C           3.00901001819438    3.14950704489502   16.67824233791050
C           4.01730733748664    2.14990402265379   16.65760673921250
C           4.73360285808373    1.83453883678819   15.51546372360626
C           5.75480800344283    0.78211864247926   15.49987440591202
C           5.74519383107618   -0.20644524762575   14.51899774188525
C           6.70942092590088   -1.19547605556820   14.51212155782527
C           7.70927815827666   -1.22661730678111   15.47603706829217
C           7.71316721813247   -0.24077897322844   16.45673539257421
C           6.75002297662665    0.74753916871228   16.47408955257848
C           8.74853706749631   -2.30476245846668   15.48056040366507
S           4.13300573390499    1.34710884531933   18.20147846645726
C           2.81666972195913    2.31427807327981   18.84635888656963
C           2.36974468144416    3.23002208234763   17.92754716145336
C           2.38742104429780    2.12376507732010   20.18144827641849
C           1.27512951229288    2.60714000732269   20.79838079850689
C           1.24813263530508    2.64009842689079   22.28894197053075
O           1.98387806397025    2.02415281740855   23.02833819784034
C           0.19338665293114    3.60992219425223   22.63461294579520
C          -0.45804993622949    4.02084599359008   21.47144566280613
C           0.08649328009533    3.28977345147648   20.32990996825040
C          -0.55383642540750    3.11033159298594   19.13082598030158
C          -0.15854518942049    2.15471822670165   18.17077921249948
N           0.09036551082117    1.35592604399335   17.38550631637426
C          -1.70579822984080    3.81184482675054   18.72403787630675
N          -2.61459198997067    4.38278353092857   18.31505603330353
C          -1.48726523583906    4.96970764742983   21.52886716054346
C          -1.84440579057414    5.48107687016370   22.74914189782752
C          -1.21324045375423    5.07735946898313   23.94617137316694
C          -0.16145374185217    4.11654741820548   23.89969218085640
C           0.47036694954020    3.72014181640956   25.09605356565082
C           0.07371789213684    4.25290980116857   26.29142502412897
C          -0.96373104774299    5.19783401568787   26.34345326316065
C          -1.59324696562928    5.60180261205619   25.19823150268309
H           8.07024084261539   10.00768553959093   -2.17449778475114
H           7.79038008849980   10.80075646841255   -4.47904891652504
H           9.43734751502956    5.78800108579859   -6.13460950122545
H           9.17240116082279    6.66077029871841   -8.42928242257949
H           8.43109716283507    8.97872889379876   -8.79867784570798
H           7.93955112537699   10.44915797382059   -6.88737052307930
H           9.54178729547026    3.91970056935060   -1.65544493124228
H           7.37647326818255    6.28961556256281    0.48272576011840
H           9.70769598483167    2.51415605821592    5.76915808927761
H          10.93529683394020    0.44549417515865    6.24733369271075
H           9.47876580059466   -1.26249570442983    2.62071387591586
H           8.22907667492603    0.79221310720314    2.15053877587466
H          11.18224406505562   -1.96593733632177    5.81920828749236
H          12.06191294607295   -1.73537236235078    4.31004685648154
H          10.57328618052074   -2.67712015757308    4.31542783327232
H           7.96032245009859    7.77490680225349    2.41200412541925
H           6.95038634236769    9.97247666198289    2.01405711062472
H           3.12933742853520    8.40595762502650    3.09371535797088
H           4.13134153850332    6.19491673649537    3.44796380882228
H           5.02939208171391   11.36374477426115    1.80482605777476
H           4.07632750711805   11.13083148817429    3.27286544115164
H           3.42952057852573   10.60766989359769    1.72242816032623
H           7.37848852301736    2.21161591990955    6.30864845510093
H           5.84528209159954    1.82992685968078   12.86202616902069
H           0.49643511826690    3.73724361347156   13.95214618758639
H          -1.55477517558123    5.07312398375546   14.14155513286506
H           0.20651715456583    7.34044324471855   17.29426426332976
H           2.26720965714246    6.02082785206303   17.09451950501870
H          -2.64144481036335    7.13106162925917   14.97875900047393
H          -1.94046388061383    8.02002254309762   16.34262761717524
H          -2.75563808947369    6.47752182393773   16.61270762172490
H           4.96205587065661   -0.21205181846949   13.77560358911613
H           6.68300028813001   -1.95781390461237   13.74646318836291
H           8.48338139213853   -0.24839985094614   17.21458239922296
H           6.78075483068578    1.51477074557271   17.23358992754523
H           8.78113963516800   -2.82018767074663   14.52390705574205
H           8.52121070042691   -3.03719021477596   16.25556129340961
H           9.73233367193987   -1.89096081052088   15.69333708630804
H           1.61959318982769    3.96717928319777   18.14456117349377
H           3.06650770860986    1.57692859990434   20.82833522422474
H          -1.98228601041693    5.30180628967833   20.63084037814288
H          -2.63311743131861    6.21705967344534   22.81058748788819
H           1.26598327037161    2.99388863299690   25.04321445323976
H           0.55790020736362    3.94918797054100   27.20749622864690
H          -1.26104180368549    5.60499965795392   27.29855133323311
H          -2.39189578370318    6.32857191010395   25.23590221043257
