101
 SCF done       -201.068547058205          0.000977288846
C           2.80333894426688   -5.04038440255974    0.32435723737371
C           1.92837627684683   -5.52001683817378   -0.78722031051834
O           1.04661357319488   -4.88422242283528   -1.32006670551749
C           2.41356716756399   -6.87466999436060   -1.10019190796758
C           3.38276441329237   -7.24867266900805   -0.16810565414388
C           3.53312030587539   -6.18757197236964    0.82375438998647
C           4.04703681870346   -6.33971993509298    2.08334067144336
C           3.94286407776202   -5.36120870740090    3.09421031252777
N           3.85144795335347   -4.61698337039728    3.96270626164878
C           4.66307316961762   -7.51887059673719    2.55220491005291
N           5.18725712131922   -8.44557036400611    2.98112053798458
C           4.02651961279874   -8.48906322745217   -0.26782726611842
C           3.68506840735921   -9.32664166663344   -1.29763987800965
C           2.70206503929069   -8.98246843947358   -2.25166379131174
C           2.03941461032514   -7.72376778509580   -2.15978491502333
C           1.05997100366918   -7.38249169137100   -3.11456208044070
C           0.74952384229998   -8.25451527641152   -4.12141465659357
C           1.39984230188922   -9.49535590357886   -4.21775088947520
C           2.35388729449877   -9.85263227046584   -3.30468555875056
C           2.85182307715976   -3.71207315767148    0.59219138602126
C           3.82650737903565   -2.96862905963861    1.30959251932412
C           5.14137099923476   -3.26476194165260    1.56669606704795
C           5.83128250083768   -2.24061027588013    2.24921765347476
C           4.99123218834056   -1.12287903204135    2.51841032667128
S           3.38964827395947   -1.37236746569527    1.89155794099440
C           5.43991999406647   -0.00715440802162    3.18471337207613
C           6.77450470683681    0.01077423898006    3.59769832360985
C           7.61717408026788   -1.10587971036316    3.33380821690930
C           7.16452307064393   -2.22103423266145    2.66870396723007
S           9.22818100617973   -0.84737281016877    3.95232825515600
C           8.77998201062189    0.74269676750485    4.53207541110970
C           7.46256260019032    1.03770143273180    4.27331347400234
C           9.72851098671299    1.58812448248533    5.18416866565457
C          11.04575098024850    1.16180661123450    5.44896718274854
C          12.01133830111553    1.99565703891951    6.10503851616462
N          13.25025295104239    1.51268759378568    6.33583738436266
C          13.55195745079508    0.31484663910582    5.95981405130297
C          12.59747292733523   -0.50857947895742    5.30150616549296
N          11.40098796069520   -0.08302826912450    5.06775110884604
F          12.91254619922939   -1.73841879571364    4.90946562045812
F          14.78040039131286   -0.12797337592157    6.20551943041285
C          11.72222225397684    3.31154483175678    6.51945043827779
C          10.40506908844304    3.75112732256000    6.25253330420369
C           9.42610675046182    2.90437384183735    5.60280541049505
N           8.25669977319728    3.53243700186540    5.46095706557771
S           8.36626325858445    5.00928778899949    6.07017759039331
N           9.89320001190603    4.94789864985172    6.54911513293214
C          12.69955999808227    4.13067712807783    7.16302466170265
C          12.53901059157089    5.43673518802014    7.56051920894436
C          13.68002035122378    5.98470519736951    8.17906275839142
C          14.74517744835623    5.04308586742647    8.25330057031392
S          14.29615857630951    3.51692597228589    7.53628181279092
C          15.95502242236760    5.35348705482095    8.82853558698941
C          16.12607395172668    6.64043809327227    9.34655098165138
C          15.05879182259014    7.57973808901447    9.26781767269992
C          13.84790012953561    7.27277585231241    8.69352794739895
S          15.50205120346314    9.09934901588856    9.98484146847374
C          17.11001978176041    8.49986661091985   10.34964936739178
C          17.26902776185102    7.19344126499103    9.96178783166494
C          18.00329899794326    9.35434291745052   11.04888470194702
C          19.35272782273155    9.28530141730630   11.16444169276370
C          20.02035397521679   10.03126878185612   12.27314402153026
O          19.51771923146149   10.90646948349257   12.94181604253295
C          21.35947036362319    9.42962789275261   12.38889803776892
C          21.55041505881103    8.51661726730676   11.35069410478937
C          20.37670577167216    8.52160385524295   10.48173284699434
C          20.34836905621415    8.10316867739049    9.17852065290346
C          19.27598054674071    8.35731578734766    8.29785401134685
N          18.44944046748061    8.57249338401108    7.53149921383384
C          21.41671232120429    7.44770088867769    8.53131269472543
N          22.24451578048750    6.89528895806196    7.95957452885308
C          22.74091789012182    7.78406317514544   11.25548225201873
C          23.71360000432423    7.98359946968884   12.20029678471307
C          23.55618491487666    8.90729747112307   13.25710538234391
C          22.34927220267272    9.65812993229859   13.36454625214858
C          22.19521984785607   10.57860259324667   14.42111422406518
C          23.19788189917422   10.74799882752636   15.33577611449835
C          24.38836914464214   10.00997539496633   15.23595216798907
C          24.56498023673484    9.11027723720938   14.22066028938420
H           4.78556326723118   -8.77581049282682    0.44189260107994
H           4.17708528401876  -10.28378737855575   -1.39382799476297
H           0.56784531985937   -6.42639937730505   -3.03071254362615
H          -0.00092125692505   -7.99308514632566   -4.85242749404594
H           1.14041928564668  -10.16737931503896   -5.02238533890558
H           2.85510320723769  -10.80706372695525   -3.37683612885780
H           2.06333550135974   -3.12544560620058    0.12952864542798
H           5.61941720472867   -4.17151872077089    1.23942807128838
H           4.79147714684844    0.83116214331769    3.38242594206171
H           7.81226056710469   -3.06166600268174    2.47768688649855
H           7.01166510050503    1.96866712226070    4.56233854324355
H          11.62412922015779    5.97842195434140    7.40850222092602
H          16.75545786974031    4.63249209245034    8.87534351895268
H          13.04926871752081    7.99503847259589    8.63956746230790
H          18.16321935899176    6.62478868882787   10.14865413433680
H          17.53636919585287   10.14265986680666   11.63242279953272
H          22.88635683172800    7.06712879553006   10.46372944352231
H          24.63494473139070    7.42177646232574   12.14602384974609
H          21.27632529543065   11.13941108038293   14.48783313680328
H          23.07990286957190   11.45347930815390   16.14464034210036
H          25.16590127738219   10.15835552101036   15.97065857438807
H          25.48027132535168    8.54163081736130   14.14171275439599
