103
 SCF done       -191.068121081517          0.000827212525
C           3.37414816286776   -2.77527092501529    0.35977306048281
C           2.71550215288544   -4.11447066458439    0.28887635598341
O           2.27091283118062   -4.73621310884710    1.22728819113765
C           2.78699306772712   -4.50231741084709   -1.13026510837983
C           3.29790028465671   -3.44026089112455   -1.87839960122300
C           3.52662573880795   -2.29708713320802   -1.00070474546822
C           3.61347049290950   -0.99135261995163   -1.40078452077789
C           3.58190299609468    0.10952805853994   -0.51857692103778
N           3.51573147927435    1.04827724809120    0.13823989471732
C           3.66059474272804   -0.57555528279914   -2.74803602194740
N           3.72389541042460   -0.17745413437731   -3.82256462694937
C           3.49268759150589   -3.56899310374557   -3.25996039121113
C           3.16582971113827   -4.75534717679800   -3.86278472620169
C           2.63487798007112   -5.84475085825490   -3.13755966965286
C           2.43703863297884   -5.72770017493817   -1.73062359379138
C           1.91142467554929   -6.81960806775351   -1.01043897798420
C           1.59233917030292   -7.98064399653664   -1.65928904547558
C           1.78356923656174   -8.10082996726848   -3.04513137796752
C           2.29321086743552   -7.05778813838098   -3.76885809082743
C           3.78679262941032   -2.29740462986896    1.55794749394846
C           4.72636900990274   -1.25993682518042    1.81837232490230
C           5.77487327202596   -0.83901417693089    1.04542002796617
C           6.54107826202270    0.18780804116037    1.64195513171209
C           6.03552297969166    0.55575154520430    2.91772949228886
S           4.66003801167388   -0.41172743565346    3.35200080173122
C           6.60043045706481    1.56100794883234    3.67389748847569
C           7.70978960868242    2.22162633557285    3.15423452920745
C           8.21976456894772    1.84253724111151    1.88538233917925
C           7.65871372040510    0.84419755980407    1.12459301192551
S           9.60983051306170    2.79987230345768    1.45896872760184
C           9.49806355641552    3.68740170894433    2.96505825721594
C           8.46072533964461    3.28291236256069    3.73436652177810
C          10.47688317823333    4.79473575912170    3.23321355503845
C          10.79848684871843    4.93044296140604    4.72366338368365
N           9.75622130504256    6.02938769238594    2.83697162789854
N           9.95356959993959    6.68088836191640    1.84566809504029
C          10.94192735621694    6.40902939912406    0.79550914176100
C          11.92016233084809    5.38215057781667    1.23601316672672
C          11.70212074693173    4.61807475282359    2.41895462527681
N          12.73798602304583    3.84922231308215    2.59381863489068
O          13.56948578297806    4.10469702166374    1.57488936972485
N          13.07878855308033    5.04011540741359    0.75141048854412
C          10.14298771359887    5.93587656253196   -0.43113697303932
C          11.64259056582783    7.70321350935084    0.49276448992010
C          11.59483957923906    8.84996476894149    1.20830855566230
C          12.39179011981861    9.89022696835123    0.65036359833572
C          13.06121462062833    9.46237582028609   -0.52667803883494
S          12.67925287353166    7.80569446444078   -0.90667391255506
C          13.89446257655366   10.28894907500820   -1.24489464569491
C          14.07163401722999   11.59404719821579   -0.78364997473522
C          13.39242798291348   12.02584794599628    0.38730073269750
C          12.56391938922882   11.19262945379734    1.10888160493455
S          13.74906545075035   13.68813630556590    0.74447633107384
C          14.83522173453118   13.78932535138989   -0.62989048138158
C          14.88298685673135   12.61377738939590   -1.33066597875920
C          15.46534369874833   15.03081914166091   -0.92253501847219
C          16.58877204796849   15.25717160898963   -1.64558697067927
C          16.85146939259488   16.62322085563020   -2.18897135002554
O          16.29614113804403   17.64262207700232   -1.84572293411582
C          17.86626240000602   16.42977842470351   -3.23962369834125
C          18.29529468876951   15.10176889901179   -3.23319980689900
C          17.63460215210252   14.38689030259133   -2.14569221502729
C          18.09046308406602   13.23919227688477   -1.55590053157480
C          17.57279088909282   12.71479376046520   -0.35259063775935
N          17.22529680924697   12.26682423886169    0.64498856410326
C          19.18912914302112   12.48988269789775   -2.02628029024677
N          20.06199615438723   11.82960911950849   -2.37229513833429
C          19.23768389563065   14.65097863531204   -4.16687068463140
C          19.73532359914543   15.54161746240880   -5.08157677807757
C          19.33511586737754   16.89589573301361   -5.10501868041136
C          18.37317671786149   17.36489326697152   -4.16329655886752
C          17.97534171806258   18.71692652523005   -4.19249414757653
C          18.51126836679303   19.57086836310840   -5.11681462975609
C          19.45896989947476   19.11430047859588   -6.04676420649458
C          19.86212952466327   17.80707770102778   -6.04246213272582
H           3.90311586906613   -2.75700635332150   -3.83793532294528
H           3.31458087501087   -4.87336798678481   -4.92639931721566
H           1.76892449507811   -6.71633877382454    0.05364438655285
H           1.18956726237669   -8.81658957187056   -1.10727484307731
H           1.52479635313371   -9.02686967726090   -3.53677378420711
H           2.44097432094599   -7.14744567081711   -4.83534642704672
H           3.39524329840091   -2.81701582814499    2.42704077564427
H           6.02068091432774   -1.27294636220838    0.09183027844322
H           6.19888652663379    1.83230490514541    4.63693968660812
H           8.05693986442452    0.57807655970256    0.15842287829471
H           8.21894349943043    3.71133993869091    4.68885807740759
H           9.90827950258272    5.23757664325892    5.26326335258093
H          11.56847007146257    5.68576786279304    4.86444884061636
H          11.16115812090272    3.98097665233791    5.10716894354080
H           9.62536592828199    5.00455351980772   -0.21125174292651
H          10.82596573257150    5.77795823658403   -1.26203008462452
H           9.41235878236219    6.69635989962646   -0.69413471652090
H          11.00200792434739    8.96691575910062    2.09782556917006
H          14.40169915476227    9.94418911800353   -2.13174281550653
H          12.06061984292193   11.53472413228025    1.99892838197082
H          15.44775925294204   12.48671411274417   -2.23780829888077
H          14.94559341596650   15.92071085882051   -0.58092479204166
H          19.55674233226131   13.62138996159049   -4.17629912987451
H          20.45788511320140   15.20960777774685   -5.81304918322342
H          17.24615433632305   19.05641462595356   -3.47397499053443
H          18.20738751715047   20.60674638354914   -5.13763892564282
H          19.86834883230348   19.80570271977848   -6.76836584309057
H          20.59164731411538   17.45335629662233   -6.75661673525695
