99
 SCF done       -187.480023390944          0.000888129989
C           0.76393669988725   -3.04723865004765   -5.04570578352321
C          -0.14640779583947   -2.14167628983209   -5.81149366504330
O          -0.80594815846665   -1.24040929767661   -5.34586677610350
C          -0.00073669291533   -2.55925084239728   -7.21628343510631
C           0.78965973960911   -3.70891668126071   -7.28436580262382
C           1.14182979003424   -4.13050149386316   -5.93474126872970
C           1.49583184437313   -5.39443996361729   -5.55130620953983
C           1.53516110936074   -5.80841442717384   -4.20201956500943
N           1.52080935925027   -6.19448496734700   -3.12149364201640
C           1.75942531589386   -6.45026454245349   -6.44863719523448
N           1.99469213403725   -7.34018377123069   -7.13369282216700
C           1.09829267699125   -4.29380926559280   -8.51915406481837
C           0.60295697527181   -3.71918684748496   -9.66022520420900
C          -0.21113380677042   -2.56524675527078   -9.62713618886607
C          -0.52677119484503   -1.95737094198424   -8.37673695041711
C          -1.33627657584371   -0.80379256602489   -8.35078738817659
C          -1.81691265785639   -0.27529969354614   -9.51735587873356
C          -1.51101065609118   -0.87095851431197  -10.75137117321563
C          -0.72585858080650   -1.98993254952920  -10.80646050410587
C           1.16997380071062   -2.71799387219145   -3.79953447190683
C           2.29010877662583   -3.23111228375696   -3.07675018372898
C           2.41980250703611   -3.31177195634548   -1.71990718240283
C           3.65695158626479   -3.85614354822904   -1.29753238896603
C           4.51219905579331   -4.14242008395313   -2.39630731785032
S           3.74504123425792   -3.76412181080426   -3.91016040030481
C           5.77735988615703   -4.65800988602096   -2.23620736220548
C           6.21265198421983   -4.92019145211315   -0.93670110307201
C           5.35059054688682   -4.65572310830727    0.16191888165399
C           4.09001307473449   -4.12460658991591    0.00036225313216
S           6.09954702558882   -5.09184108914471    1.67156156488296
C           7.54809130986933   -5.60448206780882    0.83288138047901
C           7.45633263526641   -5.45433239218943   -0.52051135478105
C           8.64114136662056   -6.11762265872680    1.61508807853644
C           9.86511062373565   -6.43715398424134    1.12175368582844
C          10.88700986048581   -6.93799925731483    1.98887068761285
C          12.14326657163582   -7.27862889232356    1.52123260289967
C          13.14436331444969   -7.77063978582197    2.37395794038861
N          13.95973922764207   -8.17580147443461    3.07436468157650
C          12.47979972977073   -7.15160790062984    0.16411482375043
N          12.73912329750498   -7.04713859245044   -0.95047933168820
C          10.52027677828426   -7.06751364721928    3.36501278332497
C           9.27158004981801   -6.73115679206324    3.78032067110527
O           8.32859963318704   -6.25363972629282    2.92879874684855
C           8.80512974099629   -6.86139534809869    5.13555930072398
C           7.53867104433894   -6.62533339296631    5.58824417953990
C           7.38461374563496   -6.88241730729648    6.97260554233117
C           8.59998651237050   -7.31854616938398    7.56874871038300
S           9.88827820831080   -7.40108056892967    6.39924319086573
C           8.69639638779046   -7.63340087039024    8.90491185526228
C           7.54460085388178   -7.52223715555295    9.68470915013852
C           6.32526883937594   -7.10058941691397    9.08615749180288
C           6.23315761616498   -6.77373500860487    7.75146152026120
S           5.03168159192140   -7.07173601722776   10.24489166777565
C           6.12096201282657   -7.56681479538007   11.52660144747696
C           7.39439294201653   -7.77142151431665   11.06804331101166
C           5.59495674119330   -7.77124159728548   12.83446771979554
C           6.23572593511183   -7.71718707341451   14.02551714255847
C           5.59757919733652   -8.34013617916362   15.22579456964141
O           4.44262589249740   -8.69227708668236   15.30850139300066
C           6.67899584733226   -8.46396432713740   16.21613244161410
C           7.83191071924975   -7.84640087790367   15.72723941036695
C           7.54323446755873   -7.23882478076249   14.43202444708027
C           8.25681710429474   -6.22518277756434   13.85257357578826
C           7.81365877685438   -5.48540427126572   12.73598896686524
N           7.49077183893352   -4.81881292212875   11.85935647890850
C           9.48089679136613   -5.73039297141787   14.35070911475519
N          10.48726122965583   -5.30024433273179   14.69596595170324
C           9.01519652398983   -7.85069332939569   16.47774045271015
C           9.01481922150885   -8.46219169164039   17.70420027462374
C           7.86178513815359   -9.08182395322731   18.23445778952583
C           6.65459539193189   -9.09299763882448   17.47639579796159
C           5.50743628566774   -9.71756850762910   18.00656374263261
C           5.55392475230026  -10.30437974780004   19.24120444978663
C           6.73946831157805  -10.29381502981956   19.99355877876301
C           7.86840967977443   -9.69717918497034   19.50263437109956
H           1.72287361320243   -5.17077690906819   -8.57217256005869
H           0.83418734764507   -4.15360492422365  -10.62205316147779
H          -1.56501656842383   -0.35404878732155   -7.39755955206685
H          -2.43777101237647    0.60778092808450   -9.49660827602183
H          -1.90140708019052   -0.43691626116990  -11.65986736262300
H          -0.48921286507694   -2.45059493194854  -11.75460434593921
H           0.61803878440640   -1.91825087441675   -3.31500871054709
H           1.63461365994636   -3.03138517435977   -1.04068176352345
H           6.41383874573237   -4.86426222514473   -3.08163484783417
H           3.44971698621394   -3.92720710468688    0.84497863529155
H           8.23767960002924   -5.71998565216356   -1.20858553280387
H          10.07905972265650   -6.31202310143863    0.07374656827119
H          11.23988002827748   -7.44338383815540    4.07506385616910
H           6.74204770676345   -6.28635586211430    4.95056670973390
H           9.62870166006396   -7.95338979117533    9.34173852644399
H           5.30271105133304   -6.44836754621519    7.31480562549315
H           8.19739498473656   -8.12809121955162   11.68927880504815
H           4.55112178022948   -8.06684996905604   12.88517636116221
H           9.91305384918264   -7.39202041304885   16.09673255491556
H           9.91967458167524   -8.47617915079534   18.29438444166930
H           4.60236484794096   -9.71964781729740   17.42002850396182
H           4.67487439884356  -10.78181912769790   19.64739872397801
H           6.75289549105160  -10.76273486279955   20.96625945770452
H           8.78169594241602   -9.68719862538939   20.07965893870108
