89
 SCF done       -175.063614077714          0.000993645444
C           2.44369053655042   -1.44080662665931    0.23824423312226
C           1.20978219735969   -1.94301669855112    0.90814878227215
O           0.31503598438954   -1.26192187104708    1.35793697505265
C           1.30907465003982   -3.41217142041980    0.83479528016296
C           2.55640031025387   -3.77067111044451    0.32109247573187
C           3.34470291544577   -2.56405854137319    0.09506771796953
C           4.71126150640174   -2.49219207327081    0.05254182030034
C           5.41296963894566   -1.27168144833035    0.15416433934010
N           6.01067797362529   -0.30246754448480    0.29733275206457
C           5.56336560418814   -3.61350459141622    0.01221787767422
N           6.30142511199859   -4.49142886054517   -0.03766107157608
C           2.89205406509483   -5.11711392435537    0.13203304051361
C           1.97128326756079   -6.07664274540716    0.46356370261750
C           0.70387617079230   -5.74920696749248    0.99402824661539
C           0.35067209176224   -4.38189536694928    1.18836324615116
C          -0.91716757008866   -4.06008521722222    1.71408335811809
C          -1.79956353388895   -5.05382322245248    2.03696393166783
C          -1.45634330799800   -6.40245277263282    1.84977036255054
C          -0.23361298487172   -6.74356000044299    1.34007809612005
C           2.49060273448870   -0.16046624123032   -0.21004205054853
C           3.30717295517438    0.41815795161577   -1.21267269092556
C           3.44884577901207    1.77416111856402   -1.43938580648511
C           4.22775122256158    2.04099010177840   -2.56215227194447
C           4.66800450113636    0.89171345219793   -3.23455700554979
S           4.12546617781837   -0.54039755869778   -2.44367335894632
C           5.40748235096162    1.15592057833896   -4.38449634156389
C           5.53714340787581    2.51312839103923   -4.60540108254375
S           4.74686128871558    3.47206012522389   -3.36867166031910
C           6.19476647422588    3.12303102799466   -5.72176610095902
C           6.23581737572228    4.49327938780176   -5.94838246486511
F           5.67188888398366    5.33214429613542   -5.06149179857627
C           6.82113279795338    5.08227084412743   -7.07680886586030
F           6.75523806963265    6.42308415069631   -7.15339606135307
C           7.43830475410364    4.36443343427363   -8.09349916356241
C           7.45137443449531    2.96367880725025   -7.87127635760823
C           6.84351498681180    2.36234506932505   -6.72792811387602
N           7.01939008723021    1.03800737995592   -6.83907849049822
N           7.67729702181765    0.88579591775206   -7.95353432427116
N           7.96411334919403    1.97228981324039   -8.61298127713386
C           8.06910519278908   -0.40709146521874   -8.42370547962806
C           7.98097646857413    4.95399187244459   -9.28028852480677
C           8.64580448694884    4.28287024058255  -10.28652769731954
C           8.99391453668591    5.13639501820593  -11.33135112762137
C           8.59109954413320    6.46632178710962  -11.13678341423000
S           7.79510338072920    6.66457082121322   -9.62227628596775
C           8.88211233189221    7.30744733087374  -12.20676866902443
C           9.52211900489673    6.63613965520319  -13.23206450213171
S           9.79416971110047    4.94394506430645  -12.84326778396471
C           9.99969485205387    7.13568319676488  -14.46815295042814
C           9.60208421911717    8.23903482869991  -15.15363715406893
C          10.49297071091882    8.80015245072292  -16.21062683354631
O          11.45486885863500    8.24561833547515  -16.69515988222221
C           9.97361035095232   10.15317619990321  -16.47560260399110
C           8.79746817736033   10.34955000761390  -15.75069044101840
C           8.45820064103668    9.11872223102629  -15.04149810193827
C           7.20533688394885    8.77784366702239  -14.60463161096042
C           6.84768477109548    7.48043100753283  -14.18371084438497
N           6.49039774544267    6.43516298714904  -13.87195759006196
C           6.09592310016794    9.64857755906423  -14.61762293081671
N           5.16184885569362   10.31497150666675  -14.58344941522009
C           8.12112758201794   11.57504678203897  -15.80651622598188
C           8.63002732233983   12.57211557084342  -16.59727235245856
C           9.80587546980140   12.39892837915412  -17.35990970405475
C          10.50872942764788   11.16015152045564  -17.30216677650850
C          11.68453774569077   10.99285297044108  -18.06166930929576
C          12.14291037090596   12.01114313350770  -18.85113682171450
C          11.45302878769755   13.23259134105626  -18.91414453739563
C          10.31162926853888   13.42392700391600  -18.18502446197363
H           3.85034999031868   -5.39332099083465   -0.27744148775310
H           2.21038574335572   -7.12047389709646    0.31951870725024
H          -1.16968810632835   -3.02075469078094    1.85300473836063
H          -2.77054184393469   -4.80680593333897    2.43953784490646
H          -2.16850157643140   -7.17089873079265    2.11190667209112
H           0.03256958603965   -7.78073529578543    1.19572161875645
H           1.72311505223104    0.49554825048935    0.19096623134400
H           3.01813214240054    2.52315973745955   -0.80059636465455
H           5.83164232468265    0.41864821844458   -5.03857738878464
H           7.64595722486901   -1.15250737189355   -7.75507849823224
H           9.15682582819449   -0.48668499988244   -8.42957594352539
H           7.70177305739778   -0.55520486972477   -9.43901869228197
H           8.84673103170002    3.22954609884647  -10.24706434341923
H           8.67194715970092    8.36145037503671  -12.22403472587747
H          10.83471549523253    6.59865922800822  -14.90813008339973
H           7.22424023294730   11.73798525187157  -15.23124200552195
H           8.12305213771648   13.52483655054957  -16.64863146613552
H          12.20570065352017   10.05028820827433  -18.00524209856090
H          13.04235209901672   11.88200445697807  -19.43428909138130
H          11.83268812139344   14.02269467090256  -19.54496707963330
H           9.77911056577005   14.36281768295953  -18.23200238971682
