115
 SCF done       -211.134531983212          0.000599970215
C           2.75235101822356    8.11439774662789   -0.01383009019292
C           2.37187819378679    9.34293128995826    0.73827801592239
O           2.48262389867400    9.51304634975896    1.93291801600953
C           1.90597421018304   10.29046207770228   -0.29167063961221
C           1.86157293902532    9.64867075274888   -1.53024912217629
C           2.21392124943719    8.24421607126735   -1.35211936218484
C           1.82736666003760    7.21444107357375   -2.16594580010838
C           1.89628650488024    5.85973913077426   -1.77393200856380
N           1.86377899799977    4.75548480807541   -1.46292579095176
C           1.21465606857018    7.38760955420994   -3.42289582434877
N           0.72556741383995    7.47549388024639   -4.45760356619744
C           1.48312046951062   10.34536786882357   -2.68471908926756
C           1.14783445991052   11.66935901661817   -2.57285973135329
C           1.16212285347541   12.34449010067635   -1.33222986561737
C           1.55263865609183   11.64700832606338   -0.15213339209938
C           1.56677878453811   12.32652206771551    1.08290930333355
C           1.20437277074050   13.64365102815975    1.14718769798778
C           0.81770155291238   14.33540737580599   -0.01183677488290
C           0.79787661544398   13.70201430415969   -1.22403900976137
C           3.58450226158490    7.20313362549706    0.55183048014403
C           4.39354808166937    6.22287773883436   -0.07493734734418
C           5.05066765543858    5.19127850082373    0.56664685751906
C           5.85216838637579    4.41336455289183   -0.27381589463099
C           6.66225570224888    3.30542498042684    0.25230055203012
C           6.03331461430730    2.25603794583539    0.93665722321133
C           6.80075840264594    1.22410377695305    1.46823446428210
C           8.17518866157335    1.25409468186857    1.32875616218766
C           8.81212186221028    2.28938803621780    0.66827952150072
C           8.05832491596233    3.32349874912376    0.12670505660545
O           8.57380367955182    4.39284219426313   -0.54296875403476
C           9.96503563436883    4.45427790301426   -0.74057461372351
O           4.67996752479202    2.33013155530521    1.00295118597905
C           3.96857894921950    1.28169631930432    1.61522023477224
C           5.82800504686957    4.86252858926837   -1.59147188099702
S           4.82910256506587    6.26709071088113   -1.75934767023978
C           6.45222646212574    4.32336392750795   -2.76064651285742
C           7.02826439910436    3.06319132434298   -2.83175552814492
C           7.63675562712888    2.58764235330934   -3.98980364893178
F           8.18127591962452    1.35480470684359   -3.90522094543266
C           7.72872459803350    3.29033123303174   -5.18639364343328
C           7.12436930977315    4.57465244331719   -5.14530275391993
C           6.48434809298035    5.07768375024380   -3.96483605329452
N           5.96362979318291    6.28603255228094   -4.16420986527398
S           6.24009231429552    6.74171962620507   -5.68061087021173
N           7.04936926215544    5.43780131882223   -6.15569224392019
C           8.31882541099203    2.80925604377388   -6.39907968556203
C           8.73476351792183    1.53510452977339   -6.73496984277343
C           9.21932894889613    1.43178200570097   -8.04220977123587
C           9.61300826271871    0.16215974546680   -8.67584932735110
C           8.75002937477396   -0.29777541622522   -9.69601343891736
C           8.96491607108670   -1.52431083812555  -10.30199890454080
C          10.03893369334085   -2.30368719094176   -9.89949196313140
C          10.89991330083529   -1.86180251822257   -8.92377481512827
C          10.70519566900074   -0.62157149827765   -8.30569692434028
O          11.66077080827017   -0.31412235983375   -7.38567500128379
C          11.85217890627557    1.00387450263755   -6.93292518616099
O           7.71854026494742    0.53691175809227   -9.98294132462363
C           6.75340606571305    0.14233087995802  -10.92784567691945
C           9.15304087738956    2.64039581831043   -8.73594435815813
S           8.52743426609062    3.90618474819466   -7.72113263167220
C           9.62883204422061    2.85736294067151  -10.04693651945947
C           9.49878383877608    3.95703477909175  -10.83798647274035
C          10.46260229782079    4.18130769870612  -11.94723275728873
O          11.18475641660380    3.34747052064528  -12.45106183205440
C          10.38704822667131    5.62831525141335  -12.23164312860207
C           9.37463461973291    6.20202393343401  -11.46177872171866
C           8.68747857670386    5.14976571099511  -10.71936009064486
C           7.40047459132512    5.21549504331541  -10.25584290703280
C           6.64050956900408    4.07325203977048   -9.92235088649772
N           5.94815328415895    3.17629345758204   -9.74009350118851
C           6.65389457395930    6.40395935814324  -10.14626131477122
N           6.01526492721479    7.34580138852928   -9.99136098850532
C           9.12273981682043    7.57854366929755  -11.52201124441521
C           9.88674644681649    8.35106514639108  -12.35689598808366
C          10.90692408289727    7.80015618052626  -13.16348428802220
C          11.17488292139946    6.40144688053574  -13.10653703281787
C          12.19456359767898    5.85709932139334  -13.91375232462714
C          12.91799131626928    6.66565675178290  -14.74616247699523
C          12.65778871572599    8.04412578252759  -14.80678508294607
C          11.67609597015743    8.59966510658457  -14.03319093556939
H           1.46848289395572    9.85374637962504   -3.64397608354031
H           0.85919017958357   12.22513004932478   -3.45337278316911
H           1.86628414850583   11.78474396234372    1.96611331505255
H           1.21289052393297   14.16276755278342    2.09401601944351
H           0.53528277765410   15.37525121678668    0.06193321019308
H           0.50023507932716   14.23213189717989   -2.11727279318632
H           3.71464105876058    7.29856258789934    1.62591305802777
H           4.94206092803724    4.99560142967749    1.61826270754100
H           6.33822655908986    0.40216790223423    1.98907737057255
H           8.76598630608978    0.45196482998648    1.74422049097170
H           9.88592693923430    2.28089899592330    0.58255973556668
H          10.50596399341959    4.50521029933968    0.20949231684726
H          10.13990778861922    5.37039663917439   -1.30261559514322
H          10.32630525353363    3.59952143357960   -1.32140591133345
H           4.22359994004262    1.18667600592846    2.67573497015933
H           4.14497207245856    0.32681172218288    1.11061689166494
H           2.91832982337196    1.55124255787058    1.51844463973595
H           7.00474775549628    2.40379626697693   -1.98016097581367
H           8.66087514426434    0.69118162430262   -6.07324988191069
H           8.30622855466792   -1.88121903529188  -11.07616880906952
H          10.20389721061958   -3.26215595287999  -10.36727788376716
H          11.74747324137844   -2.44956816376921   -8.61173394445657
H          11.14460356942589    1.27077291392039   -6.14262526751086
H          11.77674859677862    1.72806723134454   -7.74790987600607
H          12.86397105387342    1.02562264345057   -6.52587503052797
H           7.18961882031970    0.03529976785152  -11.92627319427992
H           6.02151200150016    0.94856522954681  -10.93194242459722
H           6.26663061827458   -0.79376121025263  -10.63760989852332
H          10.26605634406667    2.07284109044449  -10.44631829966580
H           8.35165302700385    8.02360399171000  -10.91416894355797
H           9.71156279913705    9.41595835412465  -12.41153648228033
H          12.38528521843596    4.79699452713094  -13.85781349352893
H          13.69758843208803    6.24767018826825  -15.36549852909503
H          13.24112680708507    8.66417365290257  -15.47147877686288
H          11.47331022786774    9.66007432765775  -14.07872897806214
