81
 SCF done       -161.567784763360          0.000468815855
C           3.39255309361537    2.03072197053134    2.27067482255827
C           2.37568816206242    2.35257956850755    3.31548201367152
O           2.00647314202232    3.46343794080075    3.62561300961974
C           1.91160828352515    1.04811237363294    3.81769004035336
C           2.66908610853007    0.03012433055735    3.23635794336268
C           3.70174852928814    0.62149285716669    2.38984965067380
C           4.86782608827250    0.00681407771919    2.01736263156398
C           5.96151875235094    0.68347171269411    1.43926530158076
N           6.89444796568926    1.19178990462791    1.00502912493455
C           5.15694037380824   -1.35412691611785    2.24929856289644
N           5.44068504967348   -2.45654973180270    2.39539290627375
C           2.40075877644991   -1.31366941837480    3.52714173333395
C           1.38671350364735   -1.60811544052896    4.40092703238533
C           0.61402134545645   -0.60180948609426    5.02090603242889
C           0.87313750721481    0.76892322473313    4.72739419323040
C           0.09872066237168    1.77010935047594    5.34809069105998
C          -0.89163261282143    1.42651709568142    6.22653215073781
C          -1.15149424652885    0.07792781909503    6.51903135727871
C          -0.41688956505503   -0.91438153140132    5.93012284485342
C           3.77286260861244    2.99978421631155    1.39858020929250
C           4.42431363738861    2.87020935047405    0.14717085969505
C           4.46947560076745    1.78429905232392   -0.70706007552439
C           5.18863200737255    2.06438025972979   -1.86511661845547
C           5.71132576172229    3.36540550409075   -1.91203988802401
S           5.26179594788878    4.26542750742559   -0.51618700083268
C           6.46964113106884    3.62687003336189   -3.05285654019146
C           6.52553474882848    2.52856796792654   -3.88573986543385
S           5.62920587383652    1.15580654356770   -3.26370410959358
C           7.22637236425279    2.43469826187739   -5.11771380634451
C           7.29032570032716    1.36880849997056   -5.99269816891032
F           6.64280595253381    0.21762857906159   -5.78831897746987
C           8.09767383633344    1.60270659783190   -7.11560413246041
F           8.29179612806760    0.69302323522185   -8.07529685335045
C           8.67973246437427    2.85434678577974   -7.13518761967442
S           8.19422157437681    3.74842127570568   -5.72296405378813
C           9.56470655070268    3.40536696863518   -8.10000618704596
C          10.16041667147190    4.64877222878956   -8.05221392780092
C          10.99623747733635    4.85787168711007   -9.14869961574559
C          11.03701907960801    3.77873948680574  -10.04444373671979
S          10.02931543735020    2.48161173126448   -9.51616039503446
C          11.86137281874159    3.98747237144485  -11.14584859147179
C          12.47266928328717    5.22717598671802  -11.10509347699588
S          12.02548452846226    6.13468166479929   -9.66823537902217
C          13.42682298659021    5.78665531217989  -11.98958999607362
C          13.70154610433910    5.45985936545969  -13.27904002832643
C          15.01334049380758    5.86722942777751  -13.86445173120201
O          15.78122477338390    6.67404004627913  -13.38930025413951
C          15.16582873987512    5.04532334147044  -15.07709251919166
C          13.99569953185479    4.31644971273541  -15.29466465654811
C          13.01074258987923    4.67133804958678  -14.27650046992790
C          11.65527061516626    4.51022986980111  -14.39167170191865
C          10.72245223842672    5.09712030198327  -13.51222938946933
N           9.92423899866050    5.58176143670251  -12.84491797989599
C          11.02498504261299    3.82002764643137  -15.44782030931045
N          10.45860871506453    3.25781330775757  -16.27268364544669
C          13.89746924017429    3.43092969054813  -16.37560177924248
C          14.97038552280111    3.29991478790113  -17.21843754047588
C          16.16345443911088    4.03271841497185  -17.03472471657412
C          16.27705976605884    4.93283912932312  -15.93513185245667
C          17.47130984162260    5.65945058335950  -15.75299056226594
C          18.51098739588973    5.50217546214992  -16.62751789121750
C          18.40420735696907    4.61797721209883  -17.71317430095199
C          17.25781405480353    3.89896651557112  -17.91320897529650
H           2.97044506050600   -2.10367445900535    3.06552659974012
H           1.16322871149981   -2.63955067637718    4.63222419224566
H           0.30672451508005    2.80247999146107    5.11540087036901
H          -1.48306572856192    2.19370916114687    6.70336182921650
H          -1.93899597292659   -0.17030806456875    7.21507852882948
H          -0.61413354054426   -1.95271899770720    6.15416785958740
H           3.48296051608866    4.00774567419240    1.68040362534610
H           3.97284165681494    0.85104025745247   -0.51381529425759
H           6.96021626249370    4.55721603966212   -3.27233345745062
H           9.99164566973048    5.35172897217757   -7.25740628132698
H          12.04233144493423    3.25655495446686  -11.91253569107576
H          14.08408602177070    6.53723576430298  -11.56027938966740
H          13.00200256373198    2.85309506818365  -16.53719845697658
H          14.91336770259472    2.61729242309576  -18.05396847169130
H          17.54206287988394    6.33521591441158  -14.91539649087806
H          19.42524544797583    6.05937570507263  -16.48811805641277
H          19.23786917049463    4.50945124460803  -18.39104077288602
H          17.17317106718434    3.21840591557398  -18.74804493477119
