109
 SCF done       -209.690781123554          0.000390069772
C           9.53302219852725   -1.89186633725814    2.18259545655881
C           9.61715243039882   -1.48927013334533    3.61594657069650
O           9.41592633025776   -2.20873131417194    4.56962746555162
C           9.93602990719425   -0.05064498193354    3.59424090260569
C          10.16707883872657    0.35384563682273    2.27904944897630
C          10.07704260135770   -0.80595677855553    1.39574975231004
C          10.63957369587242   -0.90133672729570    0.15022871296205
C          10.77837687104640   -2.11611181300642   -0.55256493661616
N          10.96189069318903   -3.08271733929457   -1.14339771705066
C          11.22238610063983    0.17797166044033   -0.54426477227469
N          11.68612036916531    1.02191563445625   -1.16935670090568
C          10.45934654088052    1.69221616226043    1.98587522351517
C          10.51826118416638    2.59423294290142    3.01606763111160
C          10.30339628181169    2.21489344287706    4.35925671432031
C          10.00264659365579    0.85656050114170    4.66935384486632
C           9.78765140091931    0.48173410172496    6.01130447614328
C           9.86855443360286    1.41590022439721    7.00675581397696
C          10.16377838420026    2.75565043744186    6.70705267651167
C          10.37622436879155    3.14751697184424    5.41385973360960
C           8.91531902976244   -3.05851025038460    1.86183101462660
C           8.39146619764780   -3.47888586026215    0.61417741626651
C           8.02573409956843   -2.73754048505670   -0.47826025335597
C           7.48163466146430   -3.49630668874524   -1.53206081026244
C           7.42303485804786   -4.88531419617881   -1.23897651810510
S           8.03302125571677   -5.17681362310088    0.37519257708589
C           6.93737191222494   -5.79279119283513   -2.16704900965538
O           6.80889922555154   -7.13623929666495   -2.05729484476056
C           7.24873400521092   -7.80118901780823   -0.89604671426266
C           6.50740508170046   -5.25902871675368   -3.40122812546795
C           6.57304984728090   -3.87159463363181   -3.69567973471864
C           7.05714510258947   -2.96270571798664   -2.76977432825742
O           7.18500740544098   -1.61888959491595   -2.87843540304315
C           6.89268023842205   -0.97303269763160   -4.09611090088551
S           5.96697440256903   -3.57437597087939   -5.31497461287494
C           5.64071950225356   -5.27547443523485   -5.55929593420995
C           5.97648587856680   -6.02198629593929   -4.46657193409039
C           5.08910438985142   -5.71536868044518   -6.79681912214319
C           4.66839912379340   -6.98172730382990   -7.14959414683554
F           4.71806997784437   -8.03522322565149   -6.32500602684319
C           4.17312037526571   -7.06952460556640   -8.45922647281984
F           3.72033907163605   -8.21605237420072   -8.98150024507067
C           4.20402929855764   -5.87513127033427   -9.15072130879963
S           4.85837735730389   -4.62980838773662   -8.13336481546137
C           3.79738007432715   -5.61029229860570  -10.49088326245580
C           3.20208470074721   -6.47063332776239  -11.37312669029060
C           2.94776928550861   -5.88204954901724  -12.63260396915076
C           3.36950419576750   -4.53910287641110  -12.68692888645628
S           4.06253384539402   -4.01910081785800  -11.18127241757562
C           3.23879640246509   -3.73916373179008  -13.81236776776608
O           3.69019186640610   -2.46484258744491  -13.68273686205248
C           3.10845213787005   -1.40881078944703  -14.41658947962790
C           2.68959541344029   -4.35362036792113  -14.95539226404094
C           2.22365623135749   -5.70778116724633  -14.89196295238521
C           2.32773798691595   -6.48554333439244  -13.74936556599462
O           1.92831086661171   -7.76232579473946  -13.54326380359519
C           1.20343219252976   -8.46620721600148  -14.52471629424772
S           1.58770451427728   -6.20256747900847  -16.44759598458612
C           1.95026733553275   -4.64901705530155  -17.15911976029448
C           2.53173060042519   -3.80678910658475  -16.24741103443341
C           1.71324307195484   -4.46025920756462  -18.54302312322536
C           1.69073503786043   -3.31422828636422  -19.27340745721704
C           1.85685597674523   -3.40519938022073  -20.75395094166671
O           1.74811727197880   -4.41035594344445  -21.42024554874162
C           2.22430014887109   -2.04451155236154  -21.18499319327249
C           2.14354867549312   -1.17570949068690  -20.09625946413995
C           1.65835022842345   -1.91012214107877  -18.93098819848090
C           1.05703646151300   -1.34932212390865  -17.83400923184409
C           0.36077630251363   -2.09660203846847  -16.86309702856888
N          -0.23809152574511   -2.65580853561371  -16.05900463808237
C           1.00194018583676    0.03453873257224  -17.57364852501478
N           0.95482360769025    1.14438273854714  -17.28361161603391
C           2.47903738031478    0.17705494947175  -20.23608005435946
C           2.88427895035066    0.63045270427161  -21.46448942790972
C           2.96272702485329   -0.21898261388509  -22.58977709862341
C           2.62553680753428   -1.59796818354796  -22.45860979502571
C           2.70551471090191   -2.44293450604742  -23.58433347677693
C           3.10263021129630   -1.94084247056830  -24.79276745948815
C           3.43677167149438   -0.58354830013339  -24.92774245950970
C           3.36933471169276    0.25885634044349  -23.85216651577426
H          10.62260451130602    2.01198390080857    0.96949545993093
H          10.73604464750697    3.63166244384237    2.80671701903956
H           9.56078609985027   -0.54999528757068    6.22888312937308
H           9.70494914349448    1.12821773718091    8.03456146886692
H          10.22156585487418    3.47677576281921    7.50895285005495
H          10.60422542578245    4.17770882526739    5.18105976346095
H           8.74194675664687   -3.72888490297107    2.69843782340891
H           8.09491636525095   -1.66648847612344   -0.53019399791434
H           6.69307035848773   -7.48085442759549   -0.01099804693560
H           8.31883742651094   -7.65642295931541   -0.72890053856225
H           7.05265718788381   -8.85642683575151   -1.08084626231800
H           7.51082794150670   -1.35386523852042   -4.91254123875525
H           7.12809787616158    0.07682429357681   -3.92670405283131
H           5.83645089643925   -1.06833805040649   -4.36111353135514
H           5.86053184408211   -7.08737152663050   -4.40487788684161
H           2.94894263009732   -7.48944017511518  -11.14881719155338
H           2.05770746605685   -1.60170770045704  -14.64245338936184
H           3.66449307143963   -1.21552776233956  -15.33934439959735
H           3.18261728685500   -0.52698828038897  -13.77922749105556
H           0.94653268341959   -9.41694471400379  -14.05928911034156
H           1.80515729061670   -8.65514527015857  -15.41739296544893
H           0.28605837446936   -7.94211640999346  -14.80360588367214
H           2.90829060374925   -2.84318001737037  -16.53328102395343
H           1.60706779433159   -5.36988438935713  -19.12699052738244
H           2.43322301977754    0.84809432673173  -19.39359688977854
H           3.15407866852529    1.66928563451445  -21.58843908310316
H           2.44738502060630   -3.48365445430947  -23.46806384159253
H           3.16246684112537   -2.58779786737157  -25.65509040394042
H           3.74894584055645   -0.20899681006537  -25.89134611869324
H           3.62532498858257    1.30355766964960  -23.95397143341297
