103
 SCF done       -199.747940427968          0.000586683624
C           8.04227066022379   -2.51765722012506    0.53161495339362
C           9.46755513658720   -2.72912209495434    0.15797693298428
O          10.42893475049166   -2.20518866140128    0.67716252681598
C           9.42921239939376   -3.65475287170442   -0.99110683993664
C           8.11501507459396   -4.06912503846932   -1.21113454088940
C           7.25984316531660   -3.51185813227581   -0.16764368520742
C           6.07520126679937   -4.05708192612791    0.25505393401880
C           5.45343122795360   -3.71691253220929    1.47456322672069
N           4.94198632528712   -3.52434124917719    2.48454819551694
C           5.39290580623796   -5.09072930458923   -0.41598164585941
N           4.78170065590501   -5.91919229794368   -0.92464297931351
C           7.80233901043214   -4.92699948843312   -2.27254442822666
C           8.81666046292922   -5.36708807250834   -3.08234316446622
C          10.16153398570674   -4.99217505412998   -2.86983852515708
C          10.48865572526350   -4.10735487933438   -1.80100574757166
C          11.83289203628295   -3.73606500698667   -1.59421626295168
C          12.81476318414517   -4.22678403921536   -2.40994309800481
C          12.49854344712150   -5.10005759105471   -3.46303659103600
C          11.20226570143030   -5.47316484495532   -3.68998809377905
C           7.68632913261417   -1.46788433687296    1.32510594939221
C           6.41970810687190   -0.87688415649723    1.47997225201769
C           6.04479030541632   -0.04239182528799    2.54543997420697
C           4.67544012910226    0.35284057432605    2.49471007136138
N           4.17750163576953    1.19870592620015    3.40600947483581
C           4.96245530768429    1.56700391816216    4.38492482831181
C           6.30890609321106    1.08721036396848    4.49021882028654
N           6.83636292166206    0.32675062070287    3.56408411804330
C           7.18140159048703    1.47591815112889    5.63402085394260
C           4.40604109823778    2.53531529472421    5.37295824471045
C           4.00350405850209   -0.15687860162742    1.36845010295223
S           5.10063457722493   -1.02774906422564    0.35879890206175
C           2.63231538766076   -0.06870764329537    1.03669427617631
C           2.19276251693574   -0.26154734117864   -0.29602496872766
C           0.81305889843688   -0.20687731825606   -0.67964597212839
N           0.49899545784888   -0.17252557624114   -1.98784057423784
C           1.43601896631021   -0.34724767916593   -2.86461315498494
C           2.77639835618302   -0.58508904741506   -2.47822634403204
N           3.13130408866823   -0.49417578100286   -1.23558458081034
F           3.72269077316893   -0.85362081397283   -3.37632870520906
F           1.10409621196240   -0.25606546167590   -4.15490261626786
C          -0.21382698280184   -0.15407057342721    0.29652240975791
C           0.22047791274535    0.07795309732577    1.62356558095603
C           1.61366647298073    0.13533518999207    1.99727032074882
N           1.75944408321002    0.29863709779967    3.30969545280351
S           0.31620285097517    0.40206210114028    3.99603307447259
N          -0.58162811024983    0.22437939779884    2.67403277958239
C          -1.57899922716807   -0.39248781671293    0.02262833002597
C          -2.13656934153404   -0.99827431750566   -1.12528276158554
C          -3.55012697942808   -1.09655138635404   -1.04075647864939
N          -4.27323757539976   -1.56535074171963   -2.06477941726673
C          -3.62930602366373   -1.96533360139231   -3.13274180730248
C          -2.19735888950690   -2.00819492883131   -3.15873140155450
N          -1.48973102540602   -1.52667758957028   -2.16916562305347
C          -1.46501749213985   -2.61917548316404   -4.30323916479094
C          -4.44511876291532   -2.42039512495293   -4.29223056587353
C          -4.07892123669554   -0.64856864261094    0.19228872794280
S          -2.79330163131686   -0.07550423858851    1.21457962586758
C          -5.45167605507879   -0.70667684673706    0.44465803538961
C          -6.13227404461690   -0.48149140394109    1.61476074674892
C          -5.50786264623263   -0.16691806406142    2.90549966702245
O          -4.32938906402992    0.08335651453519    3.10376331256997
C          -6.58659568059966   -0.22427713212154    3.90538090461511
C          -7.79521096001978   -0.48788452996583    3.26189963545717
C          -7.55624493963091   -0.62582677531241    1.82535188580066
C          -8.51835619538918   -0.82823723650597    0.86998848558820
C          -8.28859310071081   -0.93766639271832   -0.51855327549584
N          -8.20585789043760   -1.02926045733877   -1.66043452455922
C          -9.89893793440722   -0.93964367055983    1.13804327976492
N         -11.03408897733304   -1.04144139804139    1.27791128518451
C          -8.98046568300435   -0.59341710872878    4.00136175664158
C          -8.92624810253229   -0.43919664557899    5.36285538415067
C          -7.71682776161500   -0.17838798762131    6.04216466459947
C          -6.50452422408956   -0.06405645554595    5.30163742904235
C          -5.29631232867030    0.19052182457137    5.98280460956456
C          -5.29087226443001    0.32594762925599    7.34347861381002
C          -6.48269025355152    0.21532297360812    8.07817919369744
C          -7.66898027010558   -0.03020174882741    7.44352885256476
H           6.78328811065176   -5.22563655939101   -2.45764844083688
H           8.59422210638072   -6.02566008932706   -3.90954568481202
H          12.06302307644908   -3.06458088328827   -0.78216421292472
H          13.84466759445935   -3.94537303247969   -2.24850241091691
H          13.28990042110937   -5.47618239128635   -4.09451341464808
H          10.95647552143313   -6.14555981434852   -4.49930270668407
H           8.48909121192953   -0.98947990747141    1.87803062496915
H           7.29659834896791    2.55806100327655    5.67591917787562
H           8.15706332737321    1.01431009619481    5.51388224639006
H           6.73960326618438    1.14860855335835    6.57383129362838
H           3.38217677194962    2.77050673323616    5.09840143337868
H           4.99717440964929    3.44991568908269    5.38810973314417
H           4.42268466597370    2.10711725927627    6.37373610884006
H          -1.62929415862741   -2.03304905417487   -5.20641743407639
H          -1.81521897400803   -3.63289704605653   -4.48962047614703
H          -0.40175525244494   -2.63728351400126   -4.08613955543063
H          -5.49742692316760   -2.27106177130642   -4.06785134492288
H          -4.26641378118216   -3.47552001218513   -4.49488113644731
H          -4.17861740405546   -1.85789221012548   -5.18543394388515
H          -6.01523455308289   -1.03232536665797   -0.42241173030314
H          -9.92073050835755   -0.79744324527909    3.51684030446875
H          -9.83237409099838   -0.52168342231279    5.94560757849819
H          -4.38721063905163    0.27292371968352    5.40824256040345
H          -4.36532124541896    0.51875349511829    7.86542555143459
H          -6.45434277107832    0.32536101066402    9.15224242767453
H          -8.58729383108199   -0.11602666534335    8.00627930953797
