84
 SCF done       -163.401268589121          0.000942794721
C           3.10624955572213    1.43860262000704    0.31098596870628
C           2.01098135525938    2.30892391235545    0.83311802377764
O           1.28577546487442    3.01353566879600    0.16719265873638
C           1.99260878735347    2.06599916043484    2.28574999854549
C           3.07376869508832    1.25566668364254    2.63819720304816
C           3.87857550316334    0.98841687164505    1.45171133277691
C           5.20757615427475    0.66279294102206    1.43951444434691
C           5.99859274113596    0.72145984212085    0.27197781046891
N           6.67817910862250    0.81629685990219   -0.64795050625893
C           5.95638556331930    0.34909408956650    2.59225099761236
N           6.60794798960489    0.07130363967316    3.49494817075247
C           3.26745238235183    0.85938745722668    3.96747399516532
C           2.37730276605607    1.28841021341845    4.91716842709914
C           1.28109676609546    2.12003050370572    4.59766093300207
C           1.07081451180116    2.52492748835392    3.24713766072082
C          -0.02686871458882    3.35147970821780    2.93268690697182
C          -0.88100422960036    3.76365154670892    3.91821716014673
C          -0.67757239282155    3.37002062224667    5.25053449520863
C           0.37818836785057    2.56647205809360    5.58387553869258
C           3.15774107134379    1.13859212315022   -1.00887356264686
C           3.82811658172503    0.07045632336036   -1.66353655672387
C           4.15538851236596    0.03282825835918   -3.00291728442570
C           4.75969484454117   -1.17279123704553   -3.35636227164263
C           4.85923895786578   -2.09089131367762   -2.30521034847520
S           4.22223079204399   -1.43720685119829   -0.84503165240001
C           5.44131422181902   -3.31117330380067   -2.66303055105785
C           5.79718970739497   -3.32813627320741   -3.99248809759206
S           5.41331775839213   -1.82539906320123   -4.81334690711151
C           6.43040633200947   -4.38232969540954   -4.72518208828025
C           6.49292596859046   -5.72557450658679   -4.42358229882889
C           5.87283828390123   -6.33146102355999   -3.20869458537949
O           6.50763146973101   -6.81577319706213   -2.31797344385324
O           4.52834491566212   -6.28547793348411   -3.16787972302324
C           7.27453120193075   -6.46718688560967   -5.35729691406732
C           7.77277380903941   -5.66279751097307   -6.35116100757319
S           7.32846833826775   -4.02430930501570   -6.17339040826859
C           7.47876456994584   -7.89576758356632   -5.32297660183772
C           8.55168633133748   -8.57817216548645   -5.83920566986765
C           8.40391154473983   -9.96168860431315   -5.68977204619624
C           7.20553205684727  -10.33873708199266   -5.07205353545103
S           6.26071365463352   -8.95769819784464   -4.65242367659621
C           7.03201352634514  -11.71599464125679   -4.95797876078765
C           8.10175153810874  -12.41402200854142   -5.48546960604504
S           9.34991514197261  -11.33667621763262   -6.09965197907551
C           8.34149021573119  -13.80767629345948   -5.54130850609094
C           7.47244997895991  -14.84774846586143   -5.44536346912555
C           8.01027562588365  -16.20635942355591   -5.14210822031934
O           9.17515871893198  -16.53451321663643   -5.19189120423847
C           6.84066150313350  -17.00567453836505   -4.73847590596795
C           5.68131021771039  -16.24711666884279   -4.90379991230491
C           6.03058942480739  -14.95620127111416   -5.49200483364910
C           5.17174166544996  -14.14853995450489   -6.19010931379966
C           5.58791172737539  -13.06187903840772   -6.98576030943286
N           5.87221167586112  -12.19436999286017   -7.68156770615286
C           3.78011111075006  -14.35844861990592   -6.28084010801554
N           2.64058234246333  -14.46225686118279   -6.37211633199411
C           4.43027711345756  -16.77214130681781   -4.55485384816349
C           4.36662201341067  -18.04969108063195   -4.06254838804139
C           5.51792166376342  -18.85227214775034   -3.90601061697500
C           6.79758867581920  -18.32450370782047   -4.24619728462782
C           7.94502450395879  -19.12777946979781   -4.08594778398028
C           7.82819932016062  -20.40545373805241   -3.61246173867186
C           6.56988654853897  -20.93136465354800   -3.27785765120593
C           5.44028466624871  -20.17302212146365   -3.41926408268394
H           4.09245088126904    0.21977348589758    4.23667349581075
H           2.50774086292745    0.98887813261325    5.94702574273393
H          -0.17309941771814    3.64744881371604    1.90591338737672
H          -1.72118434846161    4.39744025668652    3.67697011810136
H          -1.36420881116818    3.70772033086403    6.01262015911759
H           0.53675711699972    2.26285608142636    6.60852503589041
H           2.53873705619639    1.75962980702497   -1.65016913411258
H           3.99206773214804    0.85709113905972   -3.67225441619920
H           5.62120830013067   -4.11893838733013   -1.97858791396402
H           4.13867492488490   -5.89719684731296   -3.96208288712540
H           8.36340955819329   -5.96365997565022   -7.19274456907516
H           9.40777650398460   -8.10257987339308   -6.27961307381496
H           6.19038801855548  -12.18072747036142   -4.47781153611156
H           9.38547547042807  -14.09917682350377   -5.61501636626432
H           3.53444505588380  -16.18184884323131   -4.65920583126345
H           3.41014839243667  -18.46837280116960   -3.78459599146072
H           8.90602189438257  -18.71297692357399   -4.34602317319857
H           8.70687367080921  -21.02141309407351   -3.49263292843539
H           6.50118313727642  -21.94311269964251   -2.90635505500229
H           4.47101378229227  -20.57556572901534   -3.16269948988547
