81
 SCF done       -155.969200234678          0.000455723353
C           2.13518911914115   -0.21855298923071    0.74304157009655
C           2.04656591115402   -0.38338202840155    2.22452805975192
O           2.43022547879703   -1.34171342075720    2.85663344791198
C           1.45850878191108    0.87561778054705    2.71444003558134
C           1.06883092932400    1.66109623251116    1.62848287485919
C           1.33923241752237    0.93874845191050    0.38950103027089
C           0.73873414530268    1.17338934129764   -0.81837558311429
C           0.84346794636915    0.30491563988195   -1.92505939206744
N           0.86371624234012   -0.38898173468738   -2.83872607580658
C          -0.12346603864292    2.25886064995636   -1.07828616655541
N          -0.81854849919598    3.13013952529366   -1.35185640639023
C           0.50004443172305    2.92549672222308    1.82896232102334
C           0.33296595316624    3.37534050232358    3.11265093013718
C           0.71064097184201    2.60374045913401    4.23355739930965
C           1.29161313082872    1.31604806709778    4.04186963210112
C           1.67293549937551    0.55242113659236    5.16377762163909
C           1.48463789059679    1.04478984541298    6.42581151573281
C           0.91110476656406    2.31160145283487    6.62060560096531
C           0.53214005765892    3.07441859607146    5.55020948047472
C           2.95317874640858   -1.03248177936967    0.02894856823240
C           3.49585846253176   -0.82054229591772   -1.26462212179510
C           3.70499829517756    0.37522800230897   -1.92460859431275
C           4.33354319354511    0.18860759394084   -3.15328416949725
C           4.60371539113318   -1.15641514059771   -3.45523450106003
S           4.10221999832255   -2.19296859641157   -2.17487715311402
C           5.21607005718989   -1.34063994302140   -4.69560066232366
C           5.41841411202025   -0.13567198187382   -5.32882446344336
S           4.85609738466406    1.24100463527888   -4.41560259616361
C           6.02806744181793    0.10042659534918   -6.60186226811484
N           6.14775263243236    1.38469576082536   -6.98983476441996
C           6.72731206638927    1.58713288994719   -8.14117772420218
C           7.20313530597336    0.50240812095008   -8.90959432453842
N           7.01623455388771   -0.74617873269374   -8.45853388933218
N           6.43511852601883   -0.94390700416972   -7.32688417730698
C           7.87590004546707    0.67007494065014  -10.16370008995172
C           8.31315126370375   -0.33093134941297  -10.99937209133773
C           8.93405266451322    0.18748109284561  -12.13806000963304
C           8.98013752286562    1.58877402576886  -12.16851888060772
S           8.22916297536904    2.27455668136775  -10.77704259425891
C           9.63062461173451    2.11324254642373  -13.28193584446112
C          10.08394654110786    1.11778055358890  -14.12566582003875
S           9.67335042116587   -0.48452150734654  -13.53991181183282
C          10.75369117949610    1.25288861735308  -15.36999442279988
C          11.49781050770018    2.29791057235763  -15.81056315532543
C          11.75945926241012    2.45481720456179  -17.27257043960019
O          11.58916847179303    1.60604836291452  -18.11850445576578
C          12.20084015158261    3.85106990831382  -17.43494306968011
C          12.34447384995742    4.44341016731795  -16.17909267919655
C          12.06695723219040    3.45230174016271  -15.14474532960805
C          12.50781368597376    3.50922163920762  -13.84986176881027
C          12.44415682167428    2.42377096398660  -12.95109827407877
N          12.45590710395329    1.56278538360774  -12.19241028043631
C          13.15598178231680    4.62537470037270  -13.28092919989908
N          13.67193879328352    5.50807911497069  -12.75958083820228
C          12.72677723924297    5.78593629116154  -16.06138687130426
C          12.96532466803088    6.50415650643701  -17.20384010943765
C          12.84532624094316    5.93139565457855  -18.48913680262196
C          12.45012378096112    4.56796207303262  -18.62157638578688
C          12.32759915887207    4.00252503935835  -19.90704791595500
C          12.59016157814817    4.75720196631113  -21.01712913138070
C          12.98164876722690    6.09990997548765  -20.89251724256582
C          13.10596833400663    6.67529576846572  -19.65768843834128
H           0.21109116219913    3.54006594035758    0.99186937257703
H          -0.09858453757112    4.35063895816753    3.28550784863267
H           2.11290924877345   -0.41891216559701    5.00204111653523
H           1.77780138422386    0.46005570045452    7.28479681237647
H           0.77203140917674    2.68056773601724    7.62597320628294
H           0.09053044390781    4.04939601916808    5.69742071123126
H           3.29170153518627   -1.92302467149212    0.54936750694814
H           3.45493627455465    1.33639749979319   -1.51419738325298
H           5.50527321118315   -2.28073870466234   -5.12579855172777
H           6.82234445703282    2.61180484009112   -8.47848367311573
H           8.17872426439002   -1.37152876689265  -10.77186661323113
H           9.73303996854658    3.16365346106322  -13.48516021543029
H          10.60365228120170    0.45129710760663  -16.08632782319362
H          12.81999512470581    6.25079427146043  -15.09333772936403
H          13.25585551624170    7.54227178053262  -17.13186695364561
H          12.02575992402791    2.97049239675223  -19.99083237516162
H          12.49760071004291    4.32329699819143  -22.00141848579922
H          13.18416329117750    6.67691631378780  -21.78259469140513
H          13.40734437194787    7.70808429642089  -19.55893318094072
