88
 SCF done       -165.319862021644          0.000631238247
C           5.52783176102935   -0.63840405108397    2.25682522259173
C           4.85463550958746   -0.24035386352977    3.52692013536060
O           4.22464913826402    0.77870936317911    3.70655714029231
C           5.08612938914587   -1.36023361852346    4.45596335813934
C           5.93389183172516   -2.29236628988055    3.85665572619260
C           6.34598731641428   -1.79598056958206    2.54592923295567
C           7.46702380840662   -2.19503300040300    1.86666617482846
C           7.99299417666454   -1.51461712887569    0.74935707554427
N           8.48939355565168   -0.97586548455927   -0.13422079832624
C           8.28829582457011   -3.27428732831514    2.25328702383753
N           8.98271799959009   -4.15255229495811    2.50680720050043
C           6.28759741335476   -3.46971702711210    4.52836115060743
C           5.79411740085687   -3.68200458889508    5.78924056906940
C           4.94871467505833   -2.75073389161682    6.43105590682972
C           4.57390211610891   -1.55389338268627    5.75356236310470
C           3.72598543199619   -0.62893101194483    6.39621849060349
C           3.27069638259658   -0.87848194826012    7.66142695025013
C           3.63882545588190   -2.05464882796068    8.33454383780904
C           4.45813638085815   -2.97077949144411    7.73421382681028
C           5.23742977952458    0.03995201488716    1.11519432621884
C           5.44873979476408   -0.34006201751128   -0.23143922537278
C           5.60098066714620   -1.60415966408801   -0.77247440498722
C           5.74598918733118   -1.56043807892068   -2.15497919735468
C           5.71883406243321   -0.26722554728033   -2.69503756910153
S           5.45946415513328    0.91001069394146   -1.46703260898900
C           5.90913790221559   -0.22289182096993   -4.07729694831834
C           6.07562624847915   -1.47747328752174   -4.61810673589536
S           5.98956182210737   -2.73853587845517   -3.38824093111010
C           6.30799296927123   -1.85494183390120   -5.98591287699152
C           6.31003992818060   -3.19416441544583   -6.34917159412818
C           6.56345479426236   -3.61422667584802   -7.64478339824088
C           6.84394459801083   -2.72422334744509   -8.67052007376716
C           6.82840507444973   -1.33198309425968   -8.35177148463500
N           7.04172613530373   -0.42415999821306   -9.32137502233734
C           7.02239791286733    0.84406724297370   -9.01105788047223
C           6.78740005174319    1.27026231211020   -7.69422474149815
N           6.55731853861982    0.41629280646879   -6.73357633841236
C           6.56121524896795   -0.89853712252554   -7.01776602804705
C           7.13696336604097   -3.20680489385151   -9.99290753056846
C           7.71841399417481   -2.54111008684356  -11.04804823619587
C           7.87047333201729   -3.36496589744671  -12.16415721701161
C           7.39260219224341   -4.66898389806725  -11.98618611337480
S           6.76439659018864   -4.87968453397114  -10.39541805898544
C           7.52353196076155   -5.48179088327702  -13.10988105343467
C           8.15298109100119   -4.82699028343837  -14.14933744791542
S           8.52803112081469   -3.15474113473821  -13.74318748323104
C           8.40286115205466   -5.36180392743433  -15.43964602655218
C           9.31200845529466   -4.96137444686415  -16.36333271437042
C           9.12943230396126   -5.31958035570890  -17.79907899834260
O           8.37427490812067   -6.16149660207958  -18.23264135808271
C          10.00989371485656   -4.39557451259380  -18.53682257402200
C          10.77313644805836   -3.65548775354328  -17.63227781577766
C          10.47492262279397   -4.10273504473429  -16.27636965010296
C          11.30043142400331   -3.97957107567672  -15.19117128176025
C          11.10193777027627   -4.69577914887335  -13.99129182495322
N          11.00092378389160   -5.30648892797562  -13.02463839214313
C          12.48704676672115   -3.21923865838694  -15.18016025907103
N          13.45374773173720   -2.60384269435064  -15.11370457591644
C          11.67733414878610   -2.68606776191418  -18.08393483698544
C          11.79977977232496   -2.47961268001314  -19.43318271527426
C          11.05135643714060   -3.21810618414709  -20.37618257045188
C          10.12700132634401   -4.20627039587132  -19.92773216009011
C           9.38198281308274   -4.93983191034533  -20.87326047319268
C           9.54655653981741   -4.70409418634006  -22.21031860234748
C          10.45525571314773   -3.73168453146027  -22.65778573256211
C          11.19120877870491   -3.00498958688472  -21.76262790880616
H           6.92631362134471   -4.20191037434934    4.06180780132621
H           6.05451258874591   -4.58644567379511    6.31989361028060
H           3.45027008726494    0.27102620950675    5.86957361267429
H           2.62225986179120   -0.16920322279116    8.15370032917076
H           3.26810352789682   -2.23076695301807    9.33351809394670
H           4.74336909995442   -3.87625103122402    8.25015469355658
H           4.71572704339860    0.98072515608006    1.26496314959937
H           5.56730399627974   -2.50964552011093   -0.19439998120296
H           5.93398079476952    0.67079722789296   -4.67004252130676
H           6.11350578224696   -3.94048289425614   -5.59334134136574
H           6.55842777810343   -4.67326975892348   -7.85761853937264
H           7.19263341955995    1.54418880611260   -9.81773179035450
H           6.78026346465847    2.31771326160749   -7.42466841259292
H           8.01767922832267   -1.51254891507020  -10.99386081977403
H           7.21566831573674   -6.50970817390627  -13.16401143516528
H           7.72582778015614   -6.14822241708393  -15.76029381566579
H          12.25615988974063   -2.10460163986633  -17.38469413773498
H          12.48772596942014   -1.73157181296355  -19.80001182995049
H           8.68672125797445   -5.68379186218081  -20.51775103399474
H           8.97602020029815   -5.26668773847022  -22.93407319681289
H          10.56847529466029   -3.56140546987539  -23.71821919471237
H          11.89186030086491   -2.25697305808454  -22.10456748256843
