115
 SCF done       -216.392286650024          0.000729604370
C           9.10543720136655    1.94981031692398   -1.94247807748364
C           9.00052780483160    2.04431715420677   -3.42751716713749
O           8.71273250814938    3.03623571865491   -4.05948747809201
C           9.25826615095161    0.67625764084507   -3.91226082075983
C           9.63576018903391   -0.13670258043776   -2.84137520548020
C           9.71410436815474    0.67356889868903   -1.63193777440362
C          10.45927826374586    0.39473779155793   -0.51752472962655
C          10.77150335120990    1.37143835667216    0.45310866731057
N          11.10173607351721    2.15818612542700    1.22121765164161
C          11.07055571218353   -0.84818603202822   -0.26068243373600
N          11.55934295644647   -1.84887854755634    0.01719392558182
C           9.91128479073759   -1.49581394253396   -3.03714446540152
C           9.80606192332508   -2.01178247365413   -4.30248570166583
C           9.44108793348222   -1.21501157936390   -5.41018579425053
C           9.15628923474017    0.16920185586386   -5.22235375883080
C           8.79318847391085    0.96022173631549   -6.33127806410210
C           8.71692321665713    0.40234002439444   -7.57764095500085
C           8.99610239051606   -0.96044496980403   -7.76865430584589
C           9.34953884788099   -1.75194309531198   -6.71038586750551
C           8.54371108998631    2.90296213529783   -1.15968108676441
C           8.17613870906725    2.82964471153600    0.21116929978526
C           7.88855388114557    3.90029896459950    1.01245753306045
C           7.49507612852376    3.57025714356319    2.33174267005855
C           7.45806493538198    2.14888742322719    2.52114607447592
S           7.90516722570123    1.31799342838213    1.04505812036614
C           7.08262244978232    1.54848896483575    3.71040363324472
O           7.04563663378985    0.23093096131511    4.02762046207597
C           7.71300498819604   -0.71890054362138    3.22901660184631
C           6.66186483288582    2.41571260319333    4.74272903079497
C           6.68286627685477    3.80909009050018    4.55478819516690
C           7.12568111851194    4.42545749882089    3.38813310764433
O           7.11056901867686    5.77757364151005    3.43404626783412
C           7.83369368690075    6.57137543970168    2.52226231305826
S           6.12213650954743    4.66314896776176    5.95985385959566
C           5.86896272350771    3.14778551480170    6.79436331086299
C           6.20346194558627    2.06360585487969    6.03229821787119
C           5.35127424504225    3.12050362595363    8.13777484591851
C           4.88145258321559    4.20928005610568    8.79923585521655
C           4.35663921986385    4.08332511973560   10.12415613285512
C           3.85931656263845    5.16617453685638   10.82631201781805
C           3.34196504388810    5.03400907362802   12.12485022931314
N           2.91709777526121    4.92447747802853   13.18670722997311
C           3.84305597243274    6.45903045869874   10.27929542500171
N           3.83050982822747    7.51620712248632    9.82915590855206
C           4.38404913458623    2.76330532355073   10.67410882117997
C           4.88680295697640    1.72694247264655    9.95448686886527
O           5.36288741919704    1.88041877461026    8.69138537664807
C           4.99294607712832    0.37644901511462   10.44070127017454
C           5.62460202192802   -0.66120953928697    9.81439798133775
C           5.58572849735582   -1.86201485158810   10.55836921067125
C           4.89156309641875   -1.70522606017418   11.77309224774664
S           4.30888063175070   -0.08183943026454   11.98408753077262
C           4.71571491637088   -2.72942769400971   12.69463928860123
O           4.02452820991738   -2.38515086760443   13.80920569265493
C           4.20498928520210   -3.06306578165451   15.03246967582811
C           5.25123139039377   -3.98416214640079   12.34308534696989
C           5.98855243927918   -4.13594010057421   11.12234190381116
C           6.17625298700984   -3.09948536604050   10.22170084568975
O           6.84522594402155   -3.09655146689516    9.04377405843826
C           7.60404200666745   -4.21126755169874    8.63503506649671
S           6.54785255723171   -5.78628454091875   10.94990092330767
C           5.81938517313106   -6.25489028207337   12.46520596017690
C           5.16948201361716   -5.20326013575628   13.05418014530781
C           5.89649028219348   -7.61310176548696   12.86673784462929
C           5.66358249372153   -8.17576669178028   14.07998265239282
C           5.41025719332324   -9.64630873361704   14.14985902315896
O           5.64162278516567  -10.44695719815227   13.27178507313817
C           4.78756161633773   -9.86834210204878   15.46596803966995
C           4.79113858434903   -8.67442878389176   16.18871118248535
C           5.47707625251045   -7.64500402425007   15.41306805380497
C           6.04943353797290   -6.51268674844543   15.93075553870453
C           6.93307580971437   -5.68564222420135   15.20849485633734
N           7.67770196354779   -4.99365664593429   14.67503405163307
C           5.88504490545946   -6.07173400859657   17.25976699668435
N           5.76203216409041   -5.63999510841634   18.31626383771265
C           4.21896685609363   -8.61177676142606   17.46581403894109
C           3.66363884826804   -9.74815021755259   17.99404104989350
C           3.66031507256804  -10.97634038114460   17.29710237111033
C           4.23433458231303  -11.05058044586105   15.99421954011284
C           4.22797588272467  -12.27805397628010   15.30090928283462
C           3.67715826821889  -13.38913623004667   15.87746401007081
C           3.11074507329149  -13.32212194346556   17.16069860940901
C           3.10093107670633  -12.14365473493439   17.85527046055953
H          10.18857039208489   -2.12615280408186   -2.20754541903748
H          10.00830065845260   -3.05956896318067   -4.47184528786618
H           8.58044643539964    2.00559164169582   -6.17255860785909
H           8.44026171603298    1.00903813777101   -8.42684915651522
H           8.92916978987584   -1.38002523918199   -8.76148876372810
H           9.56582221553650   -2.80052265359930   -6.85532400611657
H           8.26250864544287    3.81949311868356   -1.66942875456673
H           7.97764139739698    4.89961765217282    0.63257108306272
H           8.75372505359223   -0.43623988805581    3.05088738062130
H           7.20646709725456   -0.87728149577936    2.27295551191363
H           7.68582501312229   -1.64443357704224    3.80283747373284
H           8.83143340349097    6.16661376733350    2.33661365628429
H           7.92367095303243    7.54619861744793    3.00172961841197
H           7.28974249788400    6.69329132782974    1.58076215886117
H           6.11426514394290    1.04695829484911    6.36613426555253
H           4.89541893457639    5.17508319749357    8.31945824597823
H           4.01351601272608    2.59196828039058   11.67232107116896
H           6.11313899732902   -0.57662163018332    8.86198138630715
H           3.96288468284172   -2.33630494462748   15.80830790031099
H           5.23686569224302   -3.39704053949644   15.16235581068006
H           3.51643959580498   -3.90920549889440   15.12357397058550
H           8.10191020556991   -3.89510515933266    7.71916274484050
H           6.97211163965513   -5.07660288648728    8.41935425418257
H           8.35740895845423   -4.48210866421606    9.37846924632403
H           4.58693147658618   -5.33566746561059   13.94558932660459
H           6.11081134315329   -8.32311502825264   12.07310785726257
H           4.20284721893161   -7.68728198986683   18.01995518683997
H           3.21259600135402   -9.71603293472479   18.97524367170580
H           4.66533927096519  -12.31720418658195   14.31581154635333
H           3.67426223991777  -14.32963973978018   15.34724402451500
H           2.68109664575679  -14.21198174340979   17.59625445436417
H           2.66622588972364  -12.08999071955761   18.84285052011233
