88
 SCF done       -167.244727552461          0.000905823990
C           1.95927088173204   -5.03060757470482   -5.37095895679005
C           1.43185109173506   -5.43628807877872   -6.70764395818134
O           2.09897914916680   -5.65560978413909   -7.69430257336337
C          -0.02540664520583   -5.54899121198033   -6.53012732735291
C          -0.37176221012015   -5.12518622926631   -5.24606687882732
C           0.82376358002897   -4.64802094489444   -4.55691148635472
C           0.83282608417103   -3.77573589004115   -3.50151754663127
C           1.98801802573779   -3.11754817430969   -3.03123142585817
N           2.88413692717744   -2.51474885096701   -2.64266031467561
C          -0.32462952976917   -3.34407325777017   -2.81959324091885
N          -1.22721469139534   -2.96648097919168   -2.21959711388052
C          -1.70436969900828   -5.16707381362466   -4.81609796173180
C          -2.66273061120459   -5.61634214502548   -5.68671689308037
C          -2.34955611597484   -6.02940908886929   -7.00039572827229
C          -0.99523308421075   -6.00463201063228   -7.44447087834055
C          -0.68643224419089   -6.42251643220524   -8.75489569436593
C          -1.68128654863655   -6.84292232810053   -9.59404004612525
C          -3.01746016517496   -6.86638895189062   -9.16304590075812
C          -3.34532990820038   -6.47046706691524   -7.89534597366981
C           3.28847450580466   -5.13813996567576   -5.12224702591246
C           3.96510875803605   -5.13532161290882   -3.87557883229065
C           3.49855191091620   -5.49152628775959   -2.62516340192889
C           4.48732053164022   -5.37027580442879   -1.65125439724105
C           5.71504508032101   -4.90840743821750   -2.14090957513928
S           5.65964304470422   -4.67542176517093   -3.84349517706155
C           6.68513252039025   -4.72968102616275   -1.15181016881052
C           6.21736329199903   -5.07900562228698    0.09404606278826
S           4.54799139925333   -5.62487786377413    0.05567842490728
C           6.93216053333600   -4.92216763077018    1.32229578783300
C           6.74627659110861   -5.53655984269571    2.54058932428242
C           7.60598144965884   -5.00055383468982    3.55820869553277
C           7.72267553237207   -5.37309469444191    4.89546109356396
C           8.64519827273949   -4.72243479879169    5.70191136110307
C           9.46779336786782   -3.70321800485705    5.19347594919949
C           9.37594224828294   -3.33806029734039    3.87013439110226
C           8.45092823448354   -3.98678942138942    3.06263673667158
S           8.18212897997157   -3.69440423431611    1.37514202912025
C           8.76612149314708   -5.09812389359125    7.06035585441963
N           8.86547328352368   -5.40248293691579    8.16077330461257
C           5.86024812236793   -6.65928492688236    2.74634028040050
C           5.75328466455411   -7.76669190333796    1.94354639058246
C           4.83372960789956   -8.69060471787373    2.45164792080303
C           4.22811645172173   -8.28690510705202    3.64709712532785
S           4.80937435330031   -6.73972420744316    4.14616258132924
C           3.32167094657488   -9.20706905149655    4.16697073407923
C           3.22389186324387  -10.33554304582219    3.37441659552600
S           4.28400800289681  -10.24708646559083    1.97333750326987
C           2.49784319211268  -11.53176256846398    3.58576553754938
C           1.45434874999770  -11.78117446359786    4.41928331062947
C           1.16157060397632  -13.19443356714683    4.80003124293524
O           1.59131859005808  -14.18197582010512    4.24620954562453
C           0.30410616586243  -13.10098412925993    5.99412522895245
C          -0.02703979055624  -11.76509261399211    6.22457095603900
C           0.54815585256183  -10.93790029472389    5.16718314738820
C           0.11060554083613   -9.69190526020458    4.80219345989501
C           0.51972730672388   -9.04520487419726    3.61820952219327
N           0.80263814646697   -8.49994918022459    2.64867373217287
C          -0.86122969137487   -8.95438801130798    5.50928720106354
N          -1.63227935010349   -8.30324073055058    6.05582004296205
C          -0.81435487233743  -11.40503721636263    7.32569649774698
C          -1.25582689813191  -12.39124152676678    8.16917764782571
C          -0.94835016337137  -13.75329417885964    7.95814408025410
C          -0.14520122644124  -14.13118352142782    6.84269226697288
C           0.16432138031795  -15.49130067126836    6.63846122726090
C          -0.30533960811440  -16.43995701408136    7.50433867459446
C          -1.09838315856082  -16.07384517645762    8.60386657429832
C          -1.41324175451033  -14.76150453238197    8.82696532845786
H          -1.97253299465047   -4.86370575520814   -3.81719441759647
H          -3.69487899996538   -5.65806138471238   -5.37015736248813
H           0.34323059289615   -6.40002642536025   -9.07510648111306
H          -1.44468828884863   -7.16056937190105  -10.59850331342867
H          -3.78689770373230   -7.20112046102490   -9.84291607473363
H          -4.37267409611773   -6.48738473027472   -7.56136737574505
H           3.90887566971732   -5.29513517996906   -5.99971726441721
H           2.50356698392457   -5.85222944624608   -2.43796162639426
H           7.68192316857935   -4.36938310486260   -1.32968406929686
H           7.10589896978318   -6.15707679623502    5.30651637209047
H          10.17311233249913   -3.21642591254350    5.84932389119027
H          10.00571929651170   -2.56434457903028    3.46058745009927
H           6.33254007834302   -7.91136377183326    1.05042113707042
H           2.80171265424253   -9.08138167089683    5.09888588937317
H           2.87907194098994  -12.40613352589275    3.06596064115249
H          -1.05848889067585  -10.37253262374221    7.51649503448167
H          -1.85851191380170  -12.13052301171936    9.02717330048771
H           0.77461837601156  -15.76032736419041    5.79085936406325
H          -0.06793901422182  -17.48157412049309    7.34777089649738
H          -1.45820838712966  -16.83977569158860    9.27483473502320
H          -2.02330811831645  -14.47766050554741    9.67226437994085
