97
 SCF done       -208.655245322658          0.000815510378
C           4.86061290464916    0.97598651886877   -3.76999199812542
C           4.16958495260964   -0.20427088968036   -4.36798927884000
O           4.36152616830829   -1.36329207282947   -4.07519491997564
C           3.19738632660616    0.36445647451522   -5.31746288113051
C           3.38376923478063    1.74534007935519   -5.40660326440016
C           4.52093711227210    2.13038482746897   -4.57820245333673
C           5.28975286356959    3.24965544617343   -4.74842729566144
C           6.55047320476549    3.42190503688643   -4.13736935798045
N           7.60353962295945    3.57326380526870   -3.70752475512591
C           4.96984167584990    4.30753994257267   -5.62363661392649
N           4.75209038658272    5.20363992235507   -6.30683080347875
C           2.56526176365856    2.52492455304526   -6.23380239707160
C           1.58227298256521    1.90426567994879   -6.95954014211746
C           1.37553642280336    0.50809727038913   -6.90332203672933
C           2.19790939235048   -0.29459643658066   -6.05981979804553
C           1.98558502545050   -1.68698888794317   -6.00410430871029
C           0.99960657404656   -2.26225851435578   -6.75752327718341
C           0.18825466828722   -1.47703644171499   -7.59203894925297
C           0.37044144753445   -0.12305788424374   -7.66379112905592
C           5.55154872689711    0.83797122855075   -2.61139295633082
C           5.94580892738419    1.84128385134331   -1.68835109620141
C           6.95433547062948    1.74436440934411   -0.75272919336233
C           7.09029050588165    2.89192635223048    0.02740498853719
Cl          8.29251533035906    3.05660686295694    1.23281165816061
C           6.15849067009240    3.88794903035215   -0.25555988570418
S           5.10659046194953    3.35996978146519   -1.53452151973770
C           6.03957454488693    5.16629459334990    0.33230905790333
C           5.09951282425396    6.15420748954731    0.04660805243283
Cl          3.84173310925413    5.94910680525610   -1.09919047812210
C           5.27545183054342    7.33218953248228    0.76178404031754
C           6.36480727561268    7.28522107309674    1.61450256315385
S           7.16192468484182    5.74502915732602    1.53514939321903
C           6.86115153755685    8.33150046937873    2.43770791117127
C           8.03465573723487    8.16364300760954    3.20361401259683
C           8.61627772805834    9.22775725760484    3.96537751562466
N           9.75343942153854    9.00198118777102    4.65235456629787
C          10.30097845492222    7.83087739426692    4.61983417618516
C           9.72094289124555    6.77334866948903    3.86800820924473
N           8.63238276848834    6.95581373084166    3.19410779154158
F          10.27953286096864    5.56898387209478    3.83870419173606
F          11.42018522079939    7.64494090590078    5.30999509767535
C           8.05281390664394   10.52081888889236    4.01735761192128
C           6.84483245153693   10.68385251812722    3.29874555712916
C           6.26173835814687    9.61043733454987    2.52124242207076
N           5.13560039602954    9.99818528748204    1.92128052418637
S           4.83676249847052   11.52955027473513    2.28842647732797
N           6.11224124825951   11.79556131004932    3.22229467429993
C           8.69543383385132   11.57556400422735    4.71970863526862
C           8.26575918568287   12.88518298905044    4.84715461219120
C           9.15989659013916   13.68066276895336    5.55302257642288
Cl          8.88003394770400   15.34461312364377    5.84590851229121
C          10.30215278837394   13.00951748585532    5.98646283976893
S          10.22481498742048   11.33485165879662    5.50495538812642
C          11.40713717830215   13.54279989428928    6.68656658832676
C          12.56375889138182   12.87898063673399    7.09704778678444
Cl         12.84024979288175   11.21425594741518    6.81370181635713
C          13.48178065259640   13.68682747179626    7.76102917940837
C          13.06454323865941   14.99949965568001    7.87753317805289
S          11.50671312556909   15.21694244418853    7.13471006772525
C          13.74201826150935   16.12418150739423    8.40566003735275
C          14.80376124873941   16.17008476903998    9.25225059719890
C          15.62461981309684   17.41550309216862    9.31862326478947
O          15.30728589410961   18.49818046565831    8.87913894213984
C          16.88338857794837   17.01117221387011    9.96768578984241
C          16.78199688828037   15.68634562420976   10.39512031381528
C          15.44111889668504   15.18789338471158   10.10198417808321
C          14.82615386054103   14.13629750075217   10.72825356837974
C          13.44743254368839   13.86333143693339   10.61053984936667
N          12.32357121352321   13.63368232915843   10.57873377730690
C          15.46906400305488   13.26733601739083   11.63384516107496
N          15.94611754537091   12.52003562041817   12.36265783430282
C          17.86405597297746   15.05361164498906   11.02008890713759
C          19.02048645469478   15.76418096749795   11.21168541030612
C          19.15048739565694   17.11065296831796   10.80617056550195
C          18.05884488509878   17.76233249868584   10.16134413932498
C          18.19455578756927   19.10438348490844    9.75180824299902
C          19.36441852369286   19.77605696248499    9.97707502133561
C          20.44165582044799   19.14058548183934   10.61541456105832
C          20.33899882844149   17.83789793336894   11.02012901816091
H           2.69774588966366    3.59320939216869   -6.29061729093896
H           0.93928289175101    2.49018897873368   -7.60038794303265
H           2.61485294597522   -2.27982908495074   -5.35932538690812
H           0.83816549387697   -3.32898690178580   -6.71528284890694
H          -0.58392663969220   -1.95231435496744   -8.17864894733211
H          -0.25257496425732    0.48280918209511   -8.30572463077561
H           5.77289832647914   -0.18433059144936   -2.31920237834942
H           7.60012533227839    0.89031861469719   -0.66428642278027
H           4.64694116896571    8.19725986089453    0.66530698843722
H           7.33987277088934   13.23791344336559    4.43369023661857
H          14.43575646436841   13.32524746670483    8.09812287035102
H          13.42018972886719   17.08905368157125    8.02518375284877
H          17.79603626580226   14.02467371106128   11.33415510586111
H          19.86660513700245   15.28994953490244   11.68761507758522
H          17.36031623051220   19.58173044783882    9.26255170744391
H          19.46774512990745   20.80421701121490    9.66405134015629
H          21.35561227045846   19.69057538789064   10.78417265372271
H          21.16680635759931   17.34715953004911   11.51121605502988
