89
 SCF done       -173.129436484340          0.000697918957
C           7.28372657542195    0.46156135757656    2.82413632062794
C           7.32953683990363    1.73848183572036    3.59470821241877
O           6.93789070162202    2.81730932409577    3.20822233430142
C           7.88981113991689    1.37001077545884    4.90701822977830
C           8.29263302397739    0.03321515400081    4.88459835304141
C           8.08416988975268   -0.50686068555262    3.54637236790243
C           8.75930097370254   -1.56112815993541    2.99436864534832
C           8.75298105265460   -1.84375827004390    1.61125806104344
N           8.82671406583598   -2.06932367169224    0.48838439024198
C           9.62298700563505   -2.41178130379956    3.71403840315953
N          10.32862505702434   -3.13933404624387    4.25253039245978
C           8.83452853415714   -0.57075523567039    6.02605491938792
C           8.97203372975523    0.18018502121675    7.16403745751056
C           8.59380296273405    1.54014311135556    7.21580077204561
C           8.03194182208399    2.16265447261102    6.06297581336285
C           7.65201437223704    3.51883887301928    6.12231784948348
C           7.82687141478029    4.23169151956015    7.27643507860771
C           8.38282522807024    3.62464705384811    8.41386669492429
C           8.75681285059363    2.30909379337301    8.38590966524930
C           6.49254438032230    0.35212311801790    1.72939844783576
C           6.00912473448294   -0.82518619142343    1.09821411439477
C           5.53026617389493   -0.91334509585486   -0.19427826881751
C           5.08991041317445   -2.18777994982151   -0.56125361902220
C           4.50577300708889   -2.46673620216791   -1.90347937369851
C           5.18728436488393   -3.09260971554587    0.48808654496186
S           5.80925807890422   -2.34070092001192    1.92305340839107
C           4.85057430647347   -4.48646579146757    0.53186703182878
C           4.31591356073402   -5.07343564958599    1.69728856349374
C           3.94281803131806   -6.45677061084487    1.75410751497834
N           3.39444158053103   -6.94578322341341    2.88508102524465
C           3.22455321454259   -6.17246332910503    3.90523604896219
C           3.59940893830175   -4.80172820631282    3.84893619094309
N           4.11403189601045   -4.29147515031362    2.78102999339311
F           3.41696543746728   -4.00203628190724    4.89530130778193
F           2.67410273068429   -6.69315735806489    4.99701837932966
C           4.13624489422010   -7.34528312116542    0.67449075255230
C           4.73625241281246   -6.77832525157589   -0.47198843376115
C           5.07621946115559   -5.37192574297814   -0.54176966328811
N           5.66815734780068   -5.07073246000307   -1.69997465307004
S           5.77261890431985   -6.38547960802884   -2.60136715251987
N           5.07827412409777   -7.41922487937465   -1.59136308820924
C           3.78252444487929   -8.71967590999378    0.77274713924080
C           4.04570515851103   -9.73256913472578   -0.13645276510726
C           3.57309013258028  -10.98250734610274    0.25222550831914
C           3.77356309580359  -12.23200193286485   -0.53291852876577
C           2.94127142961925  -10.94228417196263    1.49536120277214
S           2.93250120140958   -9.32758281019068    2.15136513926916
C           2.29050257501256  -12.01730187344001    2.14464715016675
C           1.93196724289466  -12.11751207791436    3.45141691735980
C           0.85270432117400  -13.05861915718619    3.86096390106700
O           0.42024913362522  -13.97869271261833    3.20102071596000
C           0.41097173793063  -12.57704257263328    5.18253970003943
C           1.24794277877167  -11.54306319277140    5.60600719957704
C           2.30947592794837  -11.35511654113825    4.62384409371048
C           3.54277960408880  -10.81624754915232    4.87057851468789
C           4.62279069318360  -10.94068689037942    3.97045382440333
N           5.53639314724745  -11.08011995881253    3.28967354017806
C           3.90525575301084  -10.17912819586299    6.07439290382365
N           4.25447996852781   -9.64761185494017    7.02980205258973
C           1.01672325313361  -10.88404295121541    6.81958161855264
C          -0.04475751286149  -11.28181453920456    7.58988763690841
C          -0.90045612124609  -12.33657455221143    7.20138152491281
C          -0.67840116665285  -13.00894332307497    5.96422805032145
C          -1.53882963657314  -14.05704196846718    5.57923247592893
C          -2.57711594022429  -14.42673224130235    6.38906581406177
C          -2.80007791074728  -13.76901027617106    7.60929391739287
C          -1.98185972419202  -12.74741114274109    8.00705937145797
H           9.12530862690503   -1.60870905243482    6.01411964295348
H           9.38302017509825   -0.26995727874627    8.05610065560404
H           7.22573298402308    3.97447589754613    5.24256991291421
H           7.53728748264375    5.27097029067485    7.32072367367672
H           8.51267333874691    4.20658853955997    9.31435274253632
H           9.18470485394136    1.83958993944689    9.25985307506528
H           6.12496315797443    1.28954983955727    1.32209308093113
H           5.53223241585319   -0.07449787882355   -0.86785828445459
H           4.08024548519712   -1.55434363814889   -2.31468488358968
H           3.73072257900748   -3.22631665742801   -1.84270885862955
H           5.27950924327950   -2.82613682603117   -2.57915001904587
H           4.57640709308500   -9.54605947591292   -1.05188849834901
H           4.16973023127702  -11.99871873045016   -1.51718590229875
H           2.83642243409366  -12.77566718272752   -0.64493420368157
H           4.47897367098555  -12.88469941448759   -0.01913986395732
H           1.94905126502623  -12.82859759632930    1.50832329814047
H           1.65021631356834  -10.06975686671344    7.13230111390626
H          -0.24422339014782  -10.78123274438843    8.52640206721083
H          -1.35759004033669  -14.55443134886265    4.63949544058084
H          -3.23523686434214  -15.23043185952974    6.09414247221898
H          -3.62614386968594  -14.07710919875507    8.23316402199773
H          -2.15120600644581  -12.24032317792685    8.94600166490325
