93
 SCF done       -178.471778952596          0.000418283181
C           1.38347353941251   -0.24485674176391    3.41723307510114
C           0.96896013955859   -1.67638132662818    3.35931711168748
O           1.15690640257684   -2.43260038306973    2.43192464524460
C           0.34835143217390   -1.95289681165291    4.66693931227864
C           0.26922610136745   -0.76994765142132    5.40270658933130
C           0.76646365230624    0.33697455342890    4.58977137549132
C           0.46000229515412    1.65847446911824    4.78176823311519
C           0.70979954962826    2.67131960102266    3.83282860143157
N           0.84161715147031    3.52964034684970    3.08231139390219
C          -0.22601068516308    2.16014171811229    5.90697653375035
N          -0.75983918751992    2.63327965307399    6.80644458609533
C          -0.26074905350090   -0.77090505106498    6.69953483790292
C          -0.71027222485509   -1.95360470455278    7.22620817725648
C          -0.66175797455563   -3.16454231843915    6.50140559691540
C          -0.11525456545381   -3.17779728860009    5.18491915829033
C          -0.06489376891297   -4.38964821158334    4.46633508755843
C          -0.54113689633689   -5.54179730567588    5.02857197860255
C          -1.08309044950361   -5.53402970187184    6.32397199841569
C          -1.14178242721190   -4.37324395874749    7.04523452110833
C           2.25629608897504    0.23158792808669    2.49082244539485
C           3.04619131831623    1.40571552974703    2.53224600903995
C           3.48564125007099    2.12582659895616    3.62888421751789
C           4.26346581939542    3.21754645242561    3.25763842053069
C           4.42256640790147    3.35471142897960    1.86964297357875
S           3.64124476804455    2.07696841898194    1.02125535942123
C           5.14184651141903    4.48644932772263    1.49252880386415
C           5.54637233646255    5.21990562849398    2.59014768472184
S           5.04863821038296    4.49921130855309    4.10789084801750
C           6.24605297000080    6.46435079562436    2.56811038584809
C           6.64405484360437    7.12542675590826    3.72736502870284
O           6.38899631109175    6.50435407434497    4.92592020732425
C           7.53362510923907    6.13322492571886    5.68170226141715
C           7.23659316004767    8.41763265588142    3.71477969665689
O           7.54167705357982    9.04571905127336    4.89512341837412
C           6.45170371113005    9.34228639245628    5.75902818177701
C           7.56317955372321    9.08556465076840    2.53634709125241
C           7.23934681908206    8.39859537100589    1.33514498594281
C           6.56867091584436    7.12190937033559    1.35059567049150
N           6.38284456926630    6.76634736200342    0.09554943678606
O           6.89411730191121    7.74066163419542   -0.65051097111002
N           7.41086667509588    8.73048780154741    0.07147949936413
C           8.12848154828112   10.39685869063739    2.52203842076709
C           8.40239920844957   11.15952160307392    1.40300468550428
C           8.88551131295723   12.41870805179824    1.74856714847402
C           8.99257229250264   12.63152184792851    3.13106508849993
S           8.49410324062819   11.23421293162593    4.01583682868076
C           9.42277439977046   13.91104108506436    3.46970626833282
C           9.68686736366043   14.68669917155729    2.35573821127673
S           9.35691870084992   13.81788370007658    0.85967371813881
C          10.03553528776840   16.05962117407340    2.37986982535537
C          10.51424267247378   16.84644115602453    1.38273702013070
C          10.33364144355426   18.32498244548461    1.45276555776662
O          10.04786553443742   18.96249431894498    2.44227429750879
C          10.51477576607115   18.79485911665958    0.06707572812941
C          10.93158990570177   17.73173816937890   -0.73584458544910
C          11.10112298570980   16.54454069098044    0.09469880945510
C          11.91333216415154   15.47754754430425   -0.18105046825100
C          12.27110662124754   14.52453869078943    0.79663042631359
N          12.62303528793460   13.77193943294892    1.58834635237073
C          12.56388066540148   15.27749018711290   -1.41486258751808
N          13.10332100898321   15.06796110259750   -2.40606381326295
C          11.14853016906698   17.91226709631475   -2.10742393545775
C          10.94472925799105   19.15583866718976   -2.64640661194022
C          10.53345089663341   20.25571986854912   -1.86150585125185
C          10.30871304313533   20.08301057604033   -0.46444200374485
C           9.89544635908734   21.18362772597840    0.31345072306246
C           9.71257341720693   22.40724918720192   -0.26943978425652
C           9.93256516778099   22.58334225437955   -1.64498618863185
C          10.33389647241158   21.53295938840633   -2.42391233366619
H          -0.30592115854317    0.13697893829413    7.27877446760494
H          -1.11883555058076   -1.97244508522711    8.22627611831910
H           0.35314606046040   -4.38326161393985    3.47214186763506
H          -0.50368891743960   -6.46945372614862    4.47734368247114
H          -1.45425317269256   -6.45542015313364    6.74778384223214
H          -1.55880132641038   -4.36453286958531    8.04192868242957
H           2.40098809060359   -0.40900398650553    1.62592662984503
H           3.27672113915376    1.84805529536365    4.64612090838300
H           5.35664223237572    4.78261157390506    0.48333725745897
H           7.14852263392230    5.69161124077957    6.59816486409407
H           8.16132500609590    6.99493838648856    5.91717586700525
H           8.12601787027715    5.39085778749672    5.13885208311794
H           6.89607031047576    9.81053445862256    6.63448871520875
H           5.90462782523579    8.44494683280636    6.05143521036308
H           5.76488449544584   10.04447615007735    5.27827577104745
H           8.24715636286290   10.80241789954916    0.40267494976653
H           9.55986092146329   14.26572694238221    4.47473254241161
H           9.79016698083391   16.58026473684587    3.30113870245050
H          11.45564912134723   17.08708135637703   -2.72950581624612
H          11.09986834032455   19.31292470192759   -3.70409361271624
H           9.72897964853837   21.03629216216281    1.36884987731317
H           9.39598934276263   23.24986040520828    0.32697698069442
H           9.78122634965645   23.55819083211148   -2.08449682398812
H          10.50465045899828   21.66628940932415   -3.48242817914753
