90
 SCF done       -182.520142256973          0.000774592796
C           3.19773558973537    1.24688125929902    3.44349677820621
C           2.71585599309925    2.55368752325294    3.98209477957285
O           1.56089903086226    2.90725464000491    4.06192512679558
C           3.93355288513680    3.24881080638547    4.43493736022842
C           5.05919229716195    2.50998592509277    4.06467100621947
C           4.63503698864668    1.35168675654607    3.28672844290542
C           5.39378688047761    0.68856016338772    2.36133909216106
C           4.84111719561124   -0.19671934309182    1.41063983803834
N           4.42040750360355   -0.87592394426363    0.58689194310558
C           6.77891518386689    0.88340395610344    2.18684306255011
N           7.90859485222782    0.98864494573059    2.01400998097693
C           6.34522136481058    2.94163086493299    4.41249438666012
C           6.47784272586259    4.11011347419871    5.11628595920628
C           5.36253429332883    4.89326384038965    5.48778554099770
C           4.04823349986612    4.45985041834690    5.14543136414527
C           2.93874551998365    5.24474030052520    5.51963883069436
C           3.12425614447783    6.41534755781533    6.20234176536524
C           4.41636967918505    6.84772430242439    6.54127377677755
C           5.51091911235768    6.10422876947290    6.19389886764287
C           2.33335389974183    0.20913165099928    3.32667435345806
C           2.60446595276122   -1.18059305617721    3.23599434758861
C           1.70400154277830   -2.16013528131419    2.87351918886131
C           2.23805156371132   -3.44746584667403    2.93718159349930
Cl          1.33858251951704   -4.84304474474435    2.51558837415575
C           3.55518112863377   -3.49669824989617    3.37535262081286
S           4.12252002410073   -1.89160991473683    3.70963108174545
C           4.39047822756914   -4.63014854599599    3.54367831956310
C           5.73389202554086   -4.66467904477245    3.88572856238763
Cl          6.66104491572391   -3.25697090585870    4.19825005799315
C           6.27949232500825   -5.95191761537997    3.94668896367356
C           5.36254941221366   -6.93535128694989    3.66610674502176
S           3.80451049810720   -6.25034775185110    3.30828482199337
C           5.55855472819399   -8.35774565409265    3.64836059093837
C           4.48161324353332   -9.25864907785226    3.61034051328158
N           4.63627084023126  -10.55976408916165    3.60737398479300
C           5.88885881978269  -11.02658195486413    3.64160782159991
N           6.98521140994380  -10.26426778382398    3.66322485690014
C           6.82622273841858   -8.96305295405976    3.66444959743440
C           6.07289339398117  -12.44951975141656    3.65053028078534
C           5.10077132188263  -13.42018967897974    3.68898338389304
C           5.64003024118967  -14.70757999878120    3.68767045129579
Cl          4.66581210132932  -16.11585095863272    3.74059743711076
C           7.02991041314258  -14.74196706199820    3.64510473715316
S           7.66352102853457  -13.12091030906444    3.61405830292348
C           7.86933896697937  -15.88530219762098    3.63409940333677
C           9.25747213022549  -15.94051945423338    3.61263423981879
Cl         10.24543749450672  -14.54354369009002    3.59382147121258
C           9.77958533950770  -17.23494659003693    3.59555889335634
C           8.80752455183042  -18.21105130129173    3.64038788731503
S           7.21960624787771  -17.49473440705489    3.64730990256113
C           9.01655373262459  -19.61417572191783    3.57882234331651
C           8.16413837710136  -20.61542473552866    3.90776415664947
C           8.37385784437567  -21.98515115317910    3.35155740309078
O           9.39334239149998  -22.39945634590521    2.84711558515007
C           7.07195118921434  -22.65882875822023    3.50189345549556
C           6.20193723311722  -21.83972008666014    4.22433881369632
C           6.91219817200377  -20.63563394489620    4.63890543065087
C           6.59795733266385  -19.85152451308367    5.71506954918267
C           7.48895570635772  -18.89834892126938    6.25390561482031
N           8.20761996817576  -18.15646255877994    6.75381237066612
C           5.40985886827003  -19.97225455474221    6.46402827606398
N           4.45242071101011  -20.01534532814601    7.09533716936753
C           4.88508590579127  -22.24276765567377    4.47932922044227
C           4.46903389644906  -23.46200135723922    4.01197757594435
C           5.32763583097155  -24.32294365605027    3.29301499806289
C           6.66802393892439  -23.92023351726307    3.02177398020218
C           7.51955719276771  -24.78224315450840    2.30142009382097
C           7.06259028658041  -25.99728045620720    1.87051266757287
C           5.74408802151389  -26.39999196941853    2.13647539651630
C           4.89492221658569  -25.58229128309883    2.83061204714679
H           7.21241784192989    2.36011339360933    4.14416115164372
H           7.46157309108745    4.45572074251326    5.39944534332007
H           1.95097595208741    4.90239882784179    5.25441144062748
H           2.27425913434122    7.01762689490575    6.48609484050924
H           4.53953550723422    7.77528096774756    7.08046415604898
H           6.50612717657902    6.43527159402773    6.45317593720645
H           1.28183272124591    0.47165741051649    3.39550720921634
H           0.70237756249035   -1.95202941803980    2.54492947293908
H           7.30608363310355   -6.13460862167000    4.20346095044928
H           3.46023750677029   -8.89723019417675    3.58705128670491
H           7.73521059489271   -8.37684476606503    3.66622557527607
H           4.05074800235124  -13.19870430447295    3.71883769285986
H          10.83290967120950  -17.44642407690195    3.58365971121518
H           9.95512664815663  -19.92816158418246    3.13196246646153
H           4.20847419986228  -21.60184915280179    5.02111668935091
H           3.45511578805424  -23.78772254695538    4.19437417897786
H           8.53007698428814  -24.46205294201095    2.10256298365468
H           7.71594364117891  -26.65793504725198    1.32053118149447
H           5.40442388991251  -27.36374300674478    1.78703822805663
H           3.88004585044263  -25.89028920828559    3.03671266741451
