87
 SCF done       -168.271793494881          0.000759593330
C           4.56632049409999    1.51618317675484    1.57413908365900
C           4.37922449335122    0.70879774968587    2.81886299842920
O           3.91694731310352   -0.40852573886606    2.87160464494479
C           4.91620032351215    1.54340681080700    3.90512677727533
C           5.27048916590658    2.79498028762473    3.39827037724147
C           4.91679375410735    2.86011949990004    1.98281449088703
C           4.70759234631750    4.01078702714923    1.27003488489339
C           4.10398151009859    4.04350049112265   -0.00354289347842
N           3.59059589309624    4.12857207366560   -1.02652366759360
C           4.98368052817608    5.30696073869980    1.75365921840005
N           5.21211686946038    6.38301563988442    2.08079165991333
C           5.83869064376202    3.76618330748554    4.23282114303965
C           6.02724351885431    3.46726184444147    5.55722196178783
C           5.66077499469204    2.21847880058428    6.10552282733904
C           5.09161056037706    1.21821212701477    5.26420127978652
C           4.73037705054908   -0.02879337815539    5.81348839836212
C           4.92129875204507   -0.27316648447052    7.14561041948148
C           5.47904845297881    0.70920365534561    7.97968049407253
C           5.84202563794073    1.92693845271288    7.47269790037111
C           4.46835598391231    0.88796790536804    0.37574526831300
C           4.90324714401885    1.29448371800676   -0.91118123899842
C           5.86538957335046    2.21785449273051   -1.27393070676870
C           6.02067438523166    2.28654790524369   -2.65682164356595
C           5.18012883031455    1.41809768621786   -3.36808205502526
S           4.20652585368669    0.48225972583641   -2.30379672615530
C           5.31749929976396    1.50218352668054   -4.75491749776084
C           6.26543151912673    2.43588303792674   -5.10730077401558
S           6.99882211054241    3.22284950789106   -3.72527998764357
C           6.70197483413103    2.82076312918471   -6.41888588141639
C           6.26256417724206    2.26172231229033   -7.57709786196617
C           6.76488196940732    2.71605820070565   -8.83637448101478
C           6.34399252086715    2.16951918908610  -10.03583977412358
C           6.83927500880101    2.62191560958456  -11.26931697502762
N           7.24344524839293    2.99837337958731  -12.27652255004998
C           5.39862214437040    1.13249057135680  -10.07888697074815
N           4.62854079324655    0.28007676459006  -10.09938811859886
C           7.72918455612887    3.76899158515030   -8.77321380749465
C           8.11987861673614    4.27739578923867   -7.57465021436942
O           7.62312225344209    3.81958344012904   -6.39624306214837
C           9.07903703303879    5.33553548699662   -7.42373813059805
C           9.50165204792684    5.90105453945862   -6.24048677982893
C          10.44482590270211    6.90502448851091   -6.46752548770907
C          10.74088676369499    7.11171995093394   -7.82103830928621
S           9.84156017091326    6.04149525753223   -8.83013393528643
C          11.66803353273883    8.12786565376679   -8.05024511352527
C          12.12705104778295    8.68118144117459   -6.87361651559878
S          11.34933910743015    7.97401941278579   -5.46309628388761
C          13.04276255748642    9.76487635713433   -6.77840330996611
C          13.82317081140101   10.14430889145758   -5.73948484740049
C          14.37072590199163   11.53427040445650   -5.69480414621806
O          14.41849526504284   12.30691637002404   -6.62497272928545
C          14.76386368279929   11.74216178681556   -4.29126915156473
C          14.62177546332634   10.54674739631236   -3.58302356850874
C          14.19796177313522    9.49434596833738   -4.49908588233997
C          14.39462798097436    8.15134576358884   -4.32632584546387
C          14.25078332884299    7.21354065657552   -5.37154130262092
N          14.19719883344198    6.43441015517036   -6.21245777337344
C          14.85786176542734    7.56562762868005   -3.13029819276778
N          15.21539611586412    7.03582808533394   -2.17722208969027
C          14.91289088593605   10.48812413142790   -2.21425246276904
C          15.34635683890804   11.62611978509031   -1.58533700842945
C          15.51459550160891   12.84768619491467   -2.27436520655993
C          15.21578934814437   12.92103451615160   -3.66641088485756
C          15.38201019997377   14.14292327037030   -4.34928437153482
C          15.82985431386703   15.24838963230990   -3.67973331675624
C          16.12766240352912   15.18168279114643   -2.30922142989624
C          15.97368206762170   14.00930634149954   -1.62105024623697
H           6.13353599952965    4.72669238248277    3.84258114905039
H           6.46771441777312    4.20381224619255    6.21354524991108
H           4.30287333467864   -0.77570443667170    5.16344572611282
H           4.64272617832222   -1.22756342594170    7.56653867851361
H           5.61997762514018    0.49454012129481    9.02858312661303
H           6.27094944688098    2.68423167781261    8.11275785568057
H           4.03575284680878   -0.10761843653378    0.42601355958781
H           6.45115520858985    2.78092064577060   -0.57070562505850
H           4.75257047174989    0.91663249488643   -5.45500723840631
H           5.53370748296611    1.46942886585150   -7.55664475867615
H           8.14863858138761    4.16095722552958   -9.68630500941000
H           9.14255015490003    5.59288326919792   -5.27614354214517
H          12.02013048662948    8.42873958473228   -9.01946063686598
H          13.06822884109927   10.42470307434946   -7.64113461284999
H          14.78745041367050    9.57011624939243   -1.66321398968134
H          15.57141507815347   11.60076274624552   -0.52890981424991
H          15.15008573663978   14.18262307754216   -5.40183589700404
H          15.95785253067124   16.18387202629185   -4.20334682845681
H          16.48013768768228   16.06681607494507   -1.80083800193860
H          16.20295770643654   13.95570862051404   -0.56666200931880
