140
 SCF done       -248.528039372623          0.000899715148
C           6.79368985527454    0.75064832480554   -2.79676958867343
C           6.02134548681711    1.65991406369547   -3.68896661317500
O           5.06946473565727    1.35259278568727   -4.37279110355593
C           6.63483040998316    2.98846121550345   -3.50072857158212
C           7.76463138352639    2.87081105167531   -2.68966632674005
C           7.98117822292691    1.46385081402949   -2.37328769014848
C           9.17374362466604    0.89352175013947   -2.01744613598057
C           9.40124980157682   -0.49969968615626   -2.06474322303946
N           9.64719751846038   -1.61631425664044   -2.16429736760940
C          10.32790187097607    1.62164334075296   -1.66784305721474
N          11.28857972362391    2.16557940393812   -1.35293228671696
C           8.51579886599468    4.00024269016003   -2.34029581104148
C           8.12347024633631    5.22378928868792   -2.81611719245933
C           6.99420155288511    5.37693460722756   -3.65053322281050
C           6.21880017747950    4.23542994546264   -4.00735058343483
C           5.09034814998117    4.39547173295368   -4.83696494799684
C           4.74582753856904    5.63631760685816   -5.29744191525746
C           5.50777662540593    6.76376364878382   -4.95147919069932
C           6.60632201484970    6.63824959286148   -4.14634861290906
C           6.28079037274714   -0.44844991776085   -2.42486065450671
C           6.64493933323725   -1.25438392599823   -1.31310104441241
C           6.37142336244655   -2.58754077907717   -1.16137120289013
C           6.82797083512064   -3.13462095449527    0.05775223720381
C           6.75964340922777   -4.47514094235601    0.49478091845981
C           6.24129234844186   -5.54296631975870   -0.33234614996618
C           5.49529322493596   -6.62117949011274    0.05878572980655
C           5.19414301777900   -7.50508894229132   -0.99452045711950
C           5.71763197190353   -7.12242770079053   -2.19166660699185
S           6.59098870785679   -5.63431561244005   -2.03868485487223
C           5.61386394583221   -7.80386868422514   -3.50830093562970
C           7.23486055883816   -4.73379010477608    1.77772974701372
C           7.79684223426440   -3.73576375677163    2.60968803870088
C           7.93031983372397   -2.40780751857266    2.14904214233086
C           7.40649030199558   -2.14286777809479    0.89141881932311
S           7.41906019116426   -0.58721052485893    0.11300142990406
C           8.63055835987300   -1.40654818925779    2.92469276759026
C           9.78250898201573   -1.55886300760353    3.64586877489176
C          10.22426455323948   -0.36650163172479    4.25250286002718
C           9.41627163304010    0.69968283451717    4.00408605288499
S           8.08041907924954    0.24579639760496    2.99521438228439
C           9.56632823695589    2.10391795237077    4.46613778846126
C           8.16842904781524   -4.25711951665462    3.86934140200427
C           7.96893783568347   -5.60522202352613    3.99238393123113
S           7.29695101818477   -6.30372206614492    2.54147233930758
C           8.24909766925024   -6.42889294110574    5.13665218083445
C           8.59616522614187   -5.91442580610382    6.37775091524855
C           8.88163436395066   -6.73107441827131    7.46567617332760
C           8.85782768219356   -8.11565075551828    7.37771141374785
C           8.51376780414928   -8.67984724584165    6.11774174889195
N           8.49378256548481  -10.01321883943739    5.97701048064459
C           8.15181639410897  -10.51892137997299    4.82281916892391
C           7.79777554621280   -9.69225247211734    3.74088280691088
N           7.82414492005432   -8.39073302934348    3.84584195057929
C           8.18698850343963   -7.84498945817476    5.01579928249380
C           9.16557277408830   -8.98116277267030    8.48314202477211
C           9.34674809116813   -8.62422281587778    9.79221250378671
C           9.65597237382177   -9.70690631416671   10.64560744404529
C           9.91432471890404   -9.67539115139049   12.03348560165545
C           9.80367925028237   -8.47190535251415   12.83102036201453
C          10.58655253658922   -8.08573016269489   13.88263396402240
C          10.15915125596456   -6.88854874668119   14.49050939035924
C           9.04227642120132   -6.35879063246898   13.92294295269235
S           8.50072322717896   -7.33493846487627   12.59592621906166
C           8.30241041415009   -5.12656927798826   14.30133045900710
C          10.25201449336682  -10.88874965374647   12.62325970070468
C          10.34792961886793  -12.10306927390709   11.89731568998106
C          10.12410437140204  -12.12297778158311   10.50305565271739
C           9.74581088585238  -10.92184132112924    9.91959066211954
S           9.36611454977163  -10.69542911237436    8.23202711621498
C          10.34524909169340  -13.33374308570959    9.74425009896964
C          11.38240559240724  -14.21550458074921    9.88514525227174
C          11.32781179059552  -15.29345594869985    8.98130192197984
C          10.25144363361626  -15.24374622493700    8.14911744142732
S           9.28257599992674  -13.83771417780365    8.46153049538999
C           9.86854445232473  -16.19872455981693    7.07658881017518
C          10.61743623072344  -13.20216658781099   12.73512448868439
C          10.76092500252409  -12.87340727805837   14.06000216967741
S          10.53433056342788  -11.15369726772345   14.32057073867505
C          10.97223722425057  -13.72256530788439   15.17389306528755
C          11.42288399591814  -15.00556235929849   15.19591345857960
C          11.15443007071853  -15.85102195156640   16.39369702530660
O          10.79963316802198  -15.45406289256865   17.48172469209330
C          11.36406434702255  -17.23922851336343   15.94117618603628
C          11.84996443766359  -17.23264300981689   14.63354550163416
C          12.04508470009806  -15.85181334384290   14.20154253052819
C          12.87820730469579  -15.44689056401570   13.19156001738311
C          13.27479616567853  -14.10597936003436   13.00715190256378
N          13.67008861858632  -13.04070629580590   12.84422753293801
C          13.48515556123416  -16.31143232348312   12.25953901959155
N          13.97427744159233  -16.95486320052416   11.44372823202705
C          12.10821226469860  -18.43419425208607   13.96129735055017
C          11.88035068401144  -19.61642213012163   14.61579443848261
C          11.40194579820526  -19.65838545773012   15.94374808102962
C          11.12999651186901  -18.44190081525524   16.63539588600934
C          10.64842031900864  -18.48905071303611   17.95960475615225
C          10.44744480692333  -19.69360370130596   18.57500353472199
C          10.71638513801373  -20.89500624327441   17.89939181972652
C          11.18227348366131  -20.87919338425433   16.61348572114156
H           9.37898340060158    3.91019770046806   -1.70070387602153
H           8.68808454465042    6.10700266745135   -2.55375132758277
H           4.51283944331034    3.52223673548734   -5.09628274056878
H           3.88164966753201    5.75793140276468   -5.93335025396197
H           5.21818120507087    7.73410686600669   -5.32717275131008
H           7.19481163412181    7.50416818703465   -3.87904938954058
H           5.43378106797767   -0.80081702471761   -3.00541563599435
H           5.87661979156656   -3.15695980813140   -1.92685424951375
H           5.14076403600451   -6.75865344288924    1.06382230852061
H           4.60769431678710   -8.39785350684776   -0.86727858351464
H           6.60253984103403   -8.06663806971243   -3.88436076397908
H           5.14198627873249   -7.15243831329856   -4.24360387567546
H           5.02218449883599   -8.71106038499252   -3.41141412015479
H          10.32527588111702   -2.48587320363361    3.69728681480974
H          11.11771133151741   -0.30250777441491    4.84848581405082
H          10.41130076703133    2.18325549696059    5.14598713880799
H           8.66580504292115    2.44069251295307    4.97859823361216
H           9.73558795178003    2.76833678809246    3.61870076003973
H           8.56058868643777   -3.64147927852558    4.65747732868743
H           8.64107735561848   -4.84511119585175    6.51373517259062
H           9.14234564407360   -6.26438884478399    8.40259059605658
H           8.15172783548736  -11.59702155942343    4.74439654736182
H           7.49484907021102  -10.09778241975811    2.78592834823448
H           9.26298990486707   -7.61179416978784   10.14021748828065
H          11.46542740190661   -8.62227979259766   14.19081746924482
H          10.66492077288556   -6.43754891417866   15.32574635922332
H           7.27953656556150   -5.36644820537789   14.59209525881793
H           8.25484466917604   -4.43069761772635   13.46384539807424
H           8.79863798645255   -4.63854367425808   15.13667995729713
H          12.19194319946050  -14.05959112516351   10.57571880115634
H          12.06668588407514  -16.07490897846954    8.95378268275782
H          10.55042744577050  -17.04570279723120    7.07392974125380
H           9.90761798708218  -15.71431279215998    6.10095088368545
H           8.85240902464327  -16.56194374451609    7.22723824042753
H          10.62391797282178  -14.21649541685341   12.37848947771208
H          10.66316567546903  -13.32823267365186   16.13698689838201
H          12.46850897185169  -18.43191640091503   12.94531028353051
H          12.07000099100098  -20.55277683883568   14.11103635263068
H          10.44544099015910  -17.55976329341397   18.46811450643775
H          10.07896127719670  -19.72921361279136   19.58934632393479
H          10.55129071124028  -21.83495002338595   18.40509365747234
H          11.39028301860089  -21.80226446610132   16.09165667705530
