133
 SCF done       -239.173325425147          0.000632710785
C           4.22783699162610    0.68934942121337   -2.14593452108876
C           4.27002553997976    2.07336610398917   -2.70147630531201
O           4.33011965015639    3.09774044528617   -2.05876554660364
C           4.27996088312172    1.89921262280740   -4.16591293690569
C           4.11223914333060    0.54892866166382   -4.47482910306067
C           3.90940131106751   -0.20264160723369   -3.24043126083036
C           3.29153143576660   -1.42117673207376   -3.14326082190979
C           2.84291131772346   -1.95861238104084   -1.91839081372759
N           2.42039000901118   -2.41924701990461   -0.95588179947789
C           2.97771383433116   -2.24869906975046   -4.23945420335085
N           2.73758744524922   -2.98689273506102   -5.08556920546633
C           4.12077596041871    0.11348552922699   -5.80619562014575
C           4.29203716913820    1.04117050725540   -6.80019470144736
C           4.44803686305422    2.41717789189124   -6.52326941665812
C           4.44424845317296    2.87098104827592   -5.17185236152100
C           4.60104320699948    4.24550058393556   -4.90052988113612
C           4.75330713941776    5.13537792239876   -5.92772112859111
C           4.75790308866387    4.69403243979986   -7.26077673654578
C           4.60951808259015    3.36605914357000   -7.55315480407344
C           4.60099202793837    0.48202663290011   -0.85603288513933
C           5.01450555159101   -0.72026447420111   -0.22805279033281
C           5.43776998801609   -1.89471939032303   -0.79688122188944
C           5.84770067012593   -2.86690984124326    0.13645158772836
C           6.33054168659348   -4.16373480640413   -0.13821514219224
C           6.30016348814480   -4.68733587696787   -1.48628616619343
C           5.28084684406867   -4.58056415214946   -2.39238223278309
C           5.56077159668120   -5.20177356042640   -3.62442769207486
C           6.79220011934867   -5.78073271940433   -3.66835005635583
S           7.63252190691607   -5.58026317236752   -2.16341074867189
C           7.42653234138237   -6.52012377285273   -4.79026747890771
C           6.77884806003931   -4.89858281798448    0.95165570092237
C           6.72805065626332   -4.41487933392011    2.28650492112626
C           6.21225509451896   -3.12961383947325    2.56344657235539
C           5.77139318630396   -2.39185920593251    1.47054664903476
S           5.14521024694319   -0.76955162228743    1.51994163030904
C           6.16753017116649   -2.61052827094844    3.91411451278405
C           7.11569700525161   -2.70973721884885    4.89429193970652
C           6.74242643846839   -2.07649190107478    6.09568812861067
C           5.51081482036344   -1.49914996956606    6.04447822800783
S           4.78509123308472   -1.71655688958392    4.48587238124704
C           4.79015109288503   -0.75807517309397    7.11189375500281
C           7.18609126594531   -5.38697792922152    3.20658431115881
C           7.57821407991569   -6.54815284503691    2.60610907601116
S           7.39901619654381   -6.52365853982221    0.87531773304523
C           8.09671351403442   -7.73163947474845    3.22752451351608
N           8.30046891889535   -8.79961432893566    2.43497274068157
C           8.73479726321625   -9.88401208795827    3.01752066499443
C           8.93320312261726   -9.91208559833495    4.41541732677172
N           8.78334928694692   -8.78095885751463    5.11104636164568
N           8.38553722196901   -7.70208359126840    4.52981348512948
C           9.33738041291424  -11.08907270029482    5.13029381905690
C           9.29622743164413  -12.38251791148854    4.69825740677389
C           9.77439827215442  -13.30871093042077    5.65428622006403
C           9.81929318847901  -14.71474129622305    5.54685589515714
C           9.43295019909648  -15.42846152123787    4.34799738947049
C           8.78163300913902  -16.62723369538608    4.25729336206935
C           8.61666086557382  -17.07714794193407    2.93276004321641
C           9.15078550422977  -16.23956257207934    2.00324005998878
S           9.86487051723083  -14.85318111179600    2.75917252033528
C           9.17599832722751  -16.38836079101819    0.52538845376820
C          10.28642270081080  -15.39639073880175    6.66322819405445
C          10.72549189734881  -14.75681013505963    7.85040457005728
C          10.66995835596723  -13.35130236809259    7.95990213430489
C          10.18994341320250  -12.66417213316569    6.84665188449877
S           9.96689854362175  -10.93766533953303    6.74794558664675
C          11.07053642159993  -12.64299469801980    9.15571590287737
C          11.72435436892710  -11.44504771120718    9.24642949901308
C          11.91552963024816  -11.01031134216139   10.57169408484095
C          11.39747540578943  -11.85713971993434   11.50291150888946
S          10.66900285764273  -13.23547981564830   10.74719460842589
C          11.40167265381931  -11.72421831959513   12.98258648395497
C          11.23208697642785  -15.68666951424712    8.78630819859625
C          11.21062292689769  -16.98503728106045    8.35334742380459
S          10.48318032626356  -17.12158728546122    6.76247628904355
C          11.60950111834939  -18.12294304113389    9.10624558499280
C          11.88222439773403  -19.37375299350066    8.66151376490217
C          11.81291302340395  -20.53525209975427    9.59437346665573
O          11.82569557218975  -20.48187922910771   10.80404587010898
C          11.66630625719977  -21.71375627585306    8.72003203169038
C          11.80199646519742  -21.32630763852938    7.38571830354834
C          12.10564731437867  -19.90132083572395    7.33048931320674
C          12.74439871717922  -19.25138498113863    6.30956154626580
C          13.29559593656324  -17.95879252392188    6.45236709324186
N          13.81505800043452  -16.94093030536223    6.55857855298625
C          13.01045725918688  -19.82279804629646    5.04964636268288
N          13.23688158603517  -20.23473371741892    4.00236797288861
C          11.67788360031203  -22.26314207010145    6.35199605939001
C          11.42129272901835  -23.56955076895173    6.67651239786530
C          11.28785253974907  -23.99763412950934    8.01592358632104
C          11.41178486734812  -23.05273340926504    9.07599967060285
C          11.27536638659211  -23.48523859506625   10.41074674546370
C          11.02722641972809  -24.80198141157857   10.68458830024659
C          10.90439088230346  -25.73716093455585    9.64446881605290
C          11.03163438470392  -25.34539470831454    8.34009607103663
H           4.00825307969661   -0.93160958859427   -6.04567011250548
H           4.30825468492208    0.72261171869948   -7.83253695303519
H           4.59684112799060    4.57225848539723   -3.87269086953296
H           4.87162754391206    6.18821416208931   -5.71955598576190
H           4.88028661362073    5.41428855174212   -8.05614265148595
H           4.61214847995199    3.02424556697624   -8.57814445718041
H           4.66750054026389    1.37914909344733   -0.24833761419895
H           5.52878115679496   -2.03851735541656   -1.85814279813240
H           4.33706847566817   -4.12185948290117   -2.15759508160179
H           4.86748019106623   -5.21425670889597   -4.44675101141844
H           7.56891440979162   -7.56783070853911   -4.52553619091747
H           8.40429610010655   -6.10129829896934   -5.02502671892965
H           6.79567753133247   -6.46519816268015   -5.67401361396516
H           8.06972102126853   -3.18293901794135    4.74636055970690
H           7.36924462181074   -2.05148256820829    6.96940089459129
H           5.38199941088508   -0.74991399830750    8.02396477549764
H           3.82729978087001   -1.22348439057986    7.32024963422015
H           4.60191563611029    0.27053077315136    6.80492375873826
H           7.20683397202264   -5.26275453718141    4.27279206495454
H           8.95512256912070  -10.73175550759112    2.38297445958569
H           8.90717974305744  -12.66901758579376    3.73910540694840
H           8.39411081002770  -17.15393046139332    5.11068769119606
H           8.11785842961962  -17.99555707639236    2.67913606148488
H          10.20225338571833  -16.44029688006225    0.16218904187384
H           8.69487420188520  -15.53795058179863    0.04282655977097
H           8.65583029358629  -17.29824956542528    0.23614000565627
H          12.09330278950413  -10.90866947199194    8.39153318245672
H          12.42011707562788  -10.09515908867603   10.82542227893702
H          11.90033179044936  -10.80198853930322   13.27054229454038
H          11.92088497008355  -12.56413719677015   13.44377250608173
H          10.38342808712853  -11.70988265651762   13.37077701442000
H          11.64905708769455  -15.41226874344687    9.73779336022555
H          11.60839826700997  -17.99456782410160   10.18418785455987
H          11.76934724866863  -21.96013435628215    5.32139854405812
H          11.31589695075174  -24.30544412754852    5.89236291616191
H          11.37066297214420  -22.75768127677368   11.20120483792397
H          10.92314840662386  -25.13255785932621   11.70719491018455
H          10.70750670929170  -26.77180191798750    9.88350907212939
H          10.93842954900972  -26.06339637436194    7.53805668623909
