107
 SCF done       -217.126378207862          0.000514642299
C           3.18623136733194  -16.21275965671396   -6.96562789480497
C           3.26671420909211  -17.59041870842852   -7.53957852620386
O           3.63961775915975  -17.86758790442085   -8.65779177630387
C           2.85319148133530  -18.48740080518104   -6.44897839027346
C           2.42281210460778  -17.72704488211400   -5.36024798871130
C           2.46374712546148  -16.31084697538441   -5.71371223012924
C           1.72230944015017  -15.32989080851582   -5.11052973264641
C           1.58546794249532  -14.02024901385059   -5.61226470841292
N           1.41451136615209  -12.95033127579062   -5.99225542295879
C           0.91678749052975  -15.53279564830314   -3.96904576300766
N           0.23939777574482  -15.63351426762531   -3.04862472371205
C           2.01619854527421  -18.34664157214041   -4.17196788907187
C           2.03226208443201  -19.71572358741811   -4.10624045473198
C           2.43678118859663  -20.51549114351334   -5.19772803561388
C           2.86659701310379  -19.89529830329030   -6.40730123196585
C           3.27610169290481  -20.69725863913298   -7.49176867265855
C           3.25542874023245  -22.06061824701637   -7.38390922522264
C           2.83060093425665  -22.67711523906828   -6.19602734886885
C           2.43143770502799  -21.92331724755448   -5.12646482406169
C           3.81448769551301  -15.19536360120478   -7.61061121182467
C           4.16519631005757  -13.91928729620985   -7.11014461432362
C           4.32145969709498  -13.51938521491004   -5.79130552161739
C           4.66488123520090  -12.17789216697621   -5.68851022603808
C           4.78461697400381  -11.54253899187557   -6.94237340028481
S           4.49855539491554  -12.60993158234499   -8.23634748196853
C           5.08000873801877  -10.17460412020385   -6.72996758688952
C           5.14066300194334   -9.94545254509939   -5.33685527354777
C           4.88022704961097  -11.19596696773938   -4.64162737601312
C           4.80834982115802  -11.40553365675663   -3.29576842311436
C           5.02274904822033  -10.37030905222144   -2.36182992227340
N           5.20372971803080   -9.52598513788165   -1.60779468727532
C           4.51163543521549  -12.67896318772062   -2.76573697103694
N           4.27201075116980  -13.72090521215308   -2.35114180236559
C           5.39192576697600   -8.61800858036356   -5.02045759557582
C           5.52288935810853   -7.83849940599979   -6.16432339221489
S           5.34174921734376   -8.75975619625322   -7.65049480835426
C           5.74011035479959   -6.45410201798540   -6.25236807102491
C           5.84117200339893   -5.73285416054115   -7.44754069072466
C           6.00854087014932   -4.32381511829974   -7.24220572528211
N           6.10548225171446   -3.48014185333312   -8.26830240322041
C           6.04866730073142   -4.00376235856911   -9.47529767502205
C           6.15212501489245   -3.06553663798508  -10.62041105727482
O           6.26950096597847   -1.86701713751536  -10.47382617262245
C           6.09890095750512   -3.69740421494770  -11.94969304166646
C           5.95726492955790   -5.01325970014125  -12.14117009551409
C           5.83865269850552   -5.99098185909648  -11.04612727419709
O           5.71033032027645   -7.18049359738118  -11.24698758045189
C           5.89071561078609   -5.41271632666695   -9.68042236861662
N           5.78587599131107   -6.25351441504968   -8.67227205218026
C           6.04049441784554   -3.96528356404813   -5.88969979963070
S           5.87151940745729   -5.37934958152400   -4.89099242897252
C           6.15279769363263   -2.65070141992295   -5.40926442243396
C           6.17022715262418   -2.21458770328781   -4.08907879846211
C           6.24665462067006   -0.83119281895901   -4.01248921936176
C           6.29057267021067   -0.21393958645265   -5.28296961700402
S           6.24711611446164   -1.33487915390399   -6.57120023675091
C           6.33844129137050    1.18785781742613   -5.09422094443767
C           6.31938800350442    1.45757432887346   -3.70933093561612
C           6.28114690703234    0.19923415617916   -2.98664870234092
C           6.30455082051758    0.03171071090026   -1.63327017488081
C           6.35589590355408    1.13676561972849   -0.75740738870942
N           6.39045467485904    2.04601993911089   -0.05963065291989
C           6.27993264892970   -1.24516006448491   -1.03412502258293
N           6.25555415606048   -2.28444313789713   -0.55102197584929
C           6.36240039378874    2.81470634447547   -3.42039063977815
C           6.42349450281514    3.59221069910791   -4.56813700252885
S           6.39591533155318    2.60943383713686   -6.02709706890746
C           6.43982908617898    5.00105456378961   -4.68579413818539
C           6.74116220321750    5.93383300717695   -3.74439754466646
C           6.28234619140448    7.34042516778761   -3.95783928827097
O           5.87804084266824    7.79949170770919   -5.00286102117633
C           6.38377102984064    7.98280243764626   -2.63810752439490
C           6.99138293903477    7.10415059626636   -1.73968706053548
C           7.37088350868100    5.88093485890254   -2.44172533264554
C           8.34444759025649    5.00793574027088   -2.03391647725305
C           8.84875560069088    3.96482308732714   -2.83567350470615
N           9.30536399239985    3.11831698480119   -3.46247697654734
C           9.03441613433545    5.10719940427184   -0.80648815190422
N           9.63555173410969    5.14254208866351    0.16986654186347
C           7.16702158804548    7.46305538929327   -0.39754405233084
C           6.74193921575981    8.70017034514758    0.01253895168034
C           6.14220287401120    9.62086649986490   -0.87470501930632
C           5.94882324544524    9.26224095658088   -2.24084655603214
C           5.34283156888289   10.18111794514764   -3.12140115440237
C           4.94740870093522   11.40910290459259   -2.66705768986212
C           5.13721655402839   11.76881273278827   -1.32308619711180
C           5.72028185801426   10.89579545357382   -0.44596712993733
H           1.71144618690152  -17.76112096972834   -3.31999464136416
H           1.72672833777087  -20.21056916100968   -3.19577549967325
H           3.60057361227846  -20.21279353727218   -8.39911225395766
H           3.56689248005109  -22.67466582878754   -8.21559112370153
H           2.82207846627425  -23.75517569911944   -6.13328885212031
H           2.10407718298925  -22.39544144476622   -4.21153850947652
H           4.13118894735464  -15.42049947886914   -8.62446788330306
H           4.22183395004776  -14.19210612953276   -4.95904066168185
H           5.47312122431038   -8.21217012184851   -4.02786659375832
H           6.18175399539018   -3.01351843844684  -12.78364772859859
H           5.92142646983433   -5.43601046336176  -13.13617910089504
H           6.12227098715024   -2.88946718849413   -3.25314006771991
H           6.30466349865979    3.23134008796375   -2.43151055062214
H           6.09961612632781    5.40546014179847   -5.63452636085304
H           7.61195667330733    6.77649559413586    0.30410634512506
H           6.86377750288641    8.99162667407527    1.04569344276804
H           5.20174470868320    9.89374430384272   -4.15134726721407
H           4.48441770876140   12.11324010994543   -3.34205794347233
H           4.81717859821335   12.74366449014230   -0.98621334187779
H           5.86730972634329   11.17051500442267    0.58848228684028
