105
 SCF done       -219.066448895985          0.000252208767
C           0.04822878318102   -1.21578457019127   -0.21975615615472
C          -0.80848086596796   -1.33949148796451    0.99819291173022
O          -0.98319421130071   -2.35322185942186    1.63748759000390
C          -1.31925444107323    0.01720457972750    1.24976551331124
C          -0.93317564531123    0.85960354665967    0.20584574657545
C          -0.22088444266868    0.08152693219500   -0.80419354374069
C          -0.09291354903551    0.43338413329546   -2.12174936065272
C           0.37972270904041   -0.43494180573606   -3.12577770336160
N           0.72907403890104   -1.11378142287082   -3.98334133183033
C          -0.51765333543735    1.66836342091787   -2.65749601333021
N          -0.84981943260690    2.64842487686249   -3.15279230053402
C          -1.25801897537371    2.22156058434144    0.22931704667610
C          -1.97699312295493    2.70710156199344    1.29069141114842
C          -2.40458806677611    1.87768527998519    2.35078242852355
C          -2.06871838815895    0.49225537986226    2.34364519982354
C          -2.49196158327985   -0.33082689532325    3.40679099769900
C          -3.22346798367082    0.19720836613056    4.43479278720331
C          -3.55897929254798    1.56063809191105    4.44635887890332
C          -3.15865025547436    2.38321080780318    3.42922634055855
C           0.92121340812660   -2.21635331899933   -0.50948476565725
C           2.04675129991974   -2.18880155692422   -1.36448259856668
C           2.76351142624510   -1.09423546622898   -1.82630767627863
C           3.81882071646966   -1.46680058367988   -2.64774037883617
C           3.92168800654971   -2.86441547023926   -2.81129902952431
S           2.73148421323526   -3.70639912315133   -1.93284729841609
C           4.99278419691778   -3.13814090566977   -3.69252332630719
C           5.56606518771858   -1.91135272924587   -4.09334120594652
C           4.84849465983729   -0.82421740496474   -3.44634522771559
C           5.06546101062278    0.51661526582137   -3.56631543452154
C           6.10265958101856    1.05543322884166   -4.35734385889411
N           6.95022028315929    1.50720094141546   -4.98268636661408
C           4.25819251534977    1.45177683717699   -2.88420667687426
N           3.59553688694586    2.19869274390780   -2.32010053785104
C           6.61419698879943   -2.07332040490741   -4.98837286497678
C           6.85649682878049   -3.41293978448297   -5.27317344921440
S           5.76437695038626   -4.48341314793810   -4.40360497698681
C           7.82474960850151   -3.97586795276405   -6.14927330305794
C           8.69226466664841   -3.22726414568612   -6.98173879265144
C           9.62680930697682   -3.87134805126683   -7.86157778460737
N          10.42744849594603   -3.12015447884782   -8.64492426154460
C          10.34672567822713   -1.83068490947745   -8.60206393991265
C           9.42019012906084   -1.19374023910319   -7.73452788288012
N           8.63815913415108   -1.87873313463818   -6.96602329301652
F           9.33277011499248    0.12912420969452   -7.68911463181353
F          11.15424512837400   -1.12889754565291   -9.38859826612934
C           9.76316123012206   -5.27474462211433   -7.96252276158702
C           8.90693001748930   -6.02491330980908   -7.12402379155640
C           7.96106023315717   -5.37955024751372   -6.24927262761101
N           7.24590528748829   -6.26768999390634   -5.55745271934567
S           7.70806246343044   -7.75244499969781   -5.95842339432052
N           8.83324441310745   -7.35323030679709   -7.02387371664416
C          10.68622365887188   -5.87495203163914   -8.85846491162883
C          10.91784933473888   -7.23775512143856   -9.01582612682753
C          11.87108997649689   -7.49340481447715   -9.98969600874599
C          12.37059348638689   -6.31565421130291  -10.58846804349511
S          11.67097019676671   -4.90026570130348   -9.93432031055869
C          13.31273428712334   -6.68754932043533  -11.57614143572114
C          13.41509635748485   -8.09538981788840  -11.59687930208732
C          12.50860284512713   -8.64549364372247  -10.60491717587393
C          12.28774518624560   -9.96530302732046  -10.33941387808676
C          12.97225763384604  -10.97897591556199  -11.04249538844836
N          13.54065801354662  -11.79057140570927  -11.61996887721434
C          11.37407878942102  -10.39487173806489   -9.35424551444808
N          10.63916036951887  -10.74992025636798   -8.54894784893147
C          14.29269912048385   -8.56110772026526  -12.56614427377001
C          14.85839950588175   -7.52826300097370  -13.30021964305917
S          14.31539267658934   -5.95191250267089  -12.73755821543035
C          15.79312330433961   -7.59803473905646  -14.35822616786757
C          16.10458697469542   -8.65504544665947  -15.15415272256335
C          17.38495027223400   -8.61943678622991  -15.92387723105015
O          18.07469986817192   -7.63968550725596  -16.09998748949067
C          17.61910948971084  -10.00857744956157  -16.34843033376252
C          16.51907909741163  -10.79275635736538  -15.99739612733111
C          15.49175775401106   -9.94382814174189  -15.39946238134290
C          14.15633954917265  -10.24470980570911  -15.34886844977590
C          13.15284476517085   -9.32074680366010  -14.99598975601674
N          12.29581446042858   -8.59952941369056  -14.74364114431671
C          13.60641245804978  -11.48298630556548  -15.74494173200314
N          13.09904490517892  -12.46317542158369  -16.05811189335038
C          16.51301460207949  -12.16966842559298  -16.25279567852474
C          17.60230854430524  -12.72822321962301  -16.86976749437393
C          18.72050064184311  -11.95939266250593  -17.26097028821378
C          18.74328415189958  -10.55920645902565  -16.99414572580502
C          19.86372734325034   -9.79629823044584  -17.38081282687843
C          20.91855578489298  -10.39647278504333  -18.01155203053368
C          20.90102679067572  -11.77487540221963  -18.27868398718583
C          19.82812704202215  -12.54006508990936  -17.91150377652328
H          -0.93685020225850    2.87967194462782   -0.56146492616937
H          -2.23154291843979    3.75637144042918    1.32834705257722
H          -2.22806735597354   -1.37641833687535    3.38733222887503
H          -3.54939836681696   -0.43395283382386    5.24793183105994
H          -4.13733465726985    1.95606300814423    5.26817578897888
H          -3.41583941007345    3.43248330306623    3.43599259411492
H           0.75677743298663   -3.13899071126436    0.03907489517168
H           2.53854009030996   -0.08366722994853   -1.53800565985096
H           7.18821126256351   -1.28116753549202   -5.43068982561422
H          10.39672433190984   -7.97608634391636   -8.43481678854377
H          14.54752414639968   -9.59445518770927  -12.71558391467804
H          16.39050845920314   -6.70748882596491  -14.52988474418021
H          15.67721638669188  -12.78263540836456  -15.95735061793694
H          17.61712118316015  -13.78985524476825  -17.06958924882763
H          19.86618906453675   -8.73852841445641  -17.17015451738910
H          21.77560592919499   -9.81142645073353  -18.30981633216980
H          21.74488194755618  -12.22766622667350  -18.77782048368196
H          19.81241143086130  -13.60072517789014  -18.11629674336245
