86
 SCF done       -149.205433714636          0.000581598379
C           4.51199211287232    1.75053315596237   -0.00898532349096
C           4.46540420242803    1.96876101570184    1.45694779250125
O           4.50748604556706    1.10971931956632    2.31291355407657
C           4.42021636301687    3.43592705055951    1.62484412064079
C           4.29334871619808    4.04069500751660    0.37439101844966
C           4.20613887820484    3.00610624889224   -0.65322480286463
C           3.72026420274808    3.17722398139855   -1.92419416643352
C           3.43199901090599    2.11124829828883   -2.79836009225148
N           3.12322316281309    1.29289139524570   -3.54314766334718
C           3.37754051541434    4.42404080163710   -2.48307720775081
N           3.10158192932160    5.41236873990388   -2.99909865985270
C           4.25777116487696    5.43630067130782    0.25689372155794
C           4.35170712358090    6.19577572883709    1.39373698231222
C           4.47787562098764    5.61514047447336    2.67455126365844
C           4.51456225658614    4.19628479560380    2.80609876257151
C           4.64646178052640    3.62161871942322    4.08697828585050
C           4.73812400883276    4.42052041425870    5.19278639311379
C           4.70176430742018    5.81895269887139    5.06894275804033
C           4.57408930955106    6.40369404697276    3.83930440193370
C           4.93839269849136    0.56004441886702   -0.51805029263395
C           5.34672603144704    0.28460274102211   -1.83758741137481
C           6.16474630474686    1.07318581962891   -2.58010069898419
C           6.43769280004125    0.64404701033098   -3.91128561470067
C           5.87007159658148   -0.53451178456104   -4.27206190298821
Si          4.90459368723721   -1.31929185112788   -2.85015150916886
C           5.91723061079122   -1.20021829849755   -5.52334060433073
C           6.51144054414530   -0.77487527797157   -6.71126284003649
C           6.48040510917870   -1.54199169501536   -7.86638171301425
C           5.85339793674961   -2.78691867237022   -7.91144901763663
C           5.23319712536531   -3.24656702174113   -6.72000550838527
N           4.62202425492625   -4.43308488570583   -6.71951726684953
C           4.04623480612439   -4.84609515548801   -5.61640010518936
C           4.07581206528640   -4.06897451163447   -4.44810517364425
N           4.68068539453740   -2.90600525349915   -4.42250794797037
C           5.26403689225308   -2.46067917169517   -5.53734234866619
C           5.74383412662574   -3.68304461245131   -9.00495509235496
C           6.26525149214889   -3.57477921666172  -10.25298429844445
C           5.93668193038909   -4.63429824801087  -11.14745864813807
C           5.11648254563082   -5.60563570845449  -10.67200328728044
Si          4.75274597696106   -5.27694961871951   -8.78641936685359
C           4.65645273577561   -6.70959853560131  -11.41590351806548
C           4.18255359010988   -6.71132729788147  -12.69403317993947
C           4.07863969128546   -7.97724902631291  -13.45879671439499
O           4.10919144111652   -9.09962835876428  -12.99865059608122
C           3.99486838717777   -7.56358214474362  -14.87484377694938
C           3.90271759299762   -6.17360703127273  -14.94603870553325
C           3.87269862393832   -5.62443660759092  -13.59291901324963
C           3.42650382703266   -4.37569421448893  -13.24331339071762
C           3.18762491420121   -3.97884360942707  -11.91325192186861
N           2.91643241229471   -3.60529708744289  -10.86129212635113
C           3.08327122522422   -3.36756928789893  -14.16521007143833
N           2.80825606674542   -2.50293609118744  -14.86950560418726
C           3.84388588556066   -5.52450421293387  -16.18616489723255
C           3.87836350608775   -6.28134573634174  -17.32808003702031
C           3.96527591888233   -7.69011161929971  -17.29094358075444
C           4.02673803557398   -8.36105350142704  -16.03478607685155
C           4.11929360382407   -9.76774470800681  -16.00366068213330
C           4.14832117275224  -10.48081336625253  -17.16992359946696
C           4.08681377914363   -9.82489545549109  -18.41018967198780
C           3.99726988526057   -8.46160970562486  -18.47055048689074
H           4.17127757693197    5.90671123978208   -0.70913044876731
H           4.33258620915368    7.27370859725403    1.32055547241722
H           4.67401920783589    2.54646191092002    4.16852110324735
H           4.84053932578186    3.97989732342913    6.17332976205687
H           4.77670640661981    6.43093510206238    5.95579718072709
H           4.54563124287846    7.47946598358601    3.74130451083079
H           4.97994505625222   -0.26046780697692    0.19202261234319
H           6.63478692797072    1.96720919859707   -2.18821488223383
H           7.05840202996879    1.24813009674640   -4.55793681653865
H           5.65998520199648   -2.34648065004766   -2.12487538855227
H           3.44971218948818   -1.35771028055125   -2.84386460447037
H           7.00716463654310    0.18396678671029   -6.73199274615937
H           6.95252024541635   -1.16308221059717   -8.76029958664459
H           3.55772674507363   -5.80798032116153   -5.65029654892119
H           3.61068568013186   -4.39870987255359   -3.53159305217196
H           6.88937718116863   -2.75806389007297  -10.58739486265500
H           6.36871752814670   -4.66306373858229  -12.14062848928221
H           5.51384825146751   -6.35612537449106   -8.14721961547586
H           3.29969752678802   -5.27272046738099   -8.70105574977712
H           4.69422253651154   -7.68088527375522  -10.93203692849007
H           3.78520412942692   -4.44971776203491  -16.24404836893313
H           3.84050676983206   -5.79654661287617  -18.29306287591113
H           4.16681850090267  -10.25945307145235  -15.04483788321819
H           4.21971225624058  -11.55803548068399  -17.14545702493356
H           4.11171015889048  -10.40793383013805  -19.31909361641679
H           3.94973954236046   -7.95441356789326  -19.42354398937171
