105
 SCF done       -192.028355499428          0.000899529045
C           2.30936447578889    1.30912094214104   -0.00828777409462
C           1.12437598239358    2.16463956394155   -0.30475503142199
O           0.07429450293442    1.78426753946472   -0.77370675293001
C           1.50594703076982    3.51600582124046    0.14182177283916
C           2.84396359406886    3.51530454661624    0.54084058638763
C           3.41396973219242    2.19326650080540    0.30564274519935
C           4.74402643884639    1.92259522514562    0.12307867832031
C           5.23145933725523    0.70566550293630   -0.39889818968405
N           5.66864520095247   -0.24469413910575   -0.87233309416066
C           5.78027645085690    2.85368272523099    0.34133308273104
N           6.66785244659237    3.55973283622937    0.51703735912008
C           3.44410518448577    4.68191386882697    1.03180996691188
C           2.69543475553089    5.82772226879703    1.10056475094187
C           1.34571768461657    5.86828269990315    0.68648020887943
C           0.72074220766371    4.68424762966071    0.19641866938492
C          -0.62785863355364    4.72909454106861   -0.21160434164416
C          -1.32795727202513    5.90202370661711   -0.14193406873649
C          -0.71642189149132    7.07209302808042    0.33640706200947
C           0.58974266982393    7.05674003576773    0.74269388795036
C           2.19128524372996   -0.04196681040082   -0.00147699842391
C           3.06365002030185   -0.99916473008005    0.57945191850078
C           3.25370644142284   -2.30206557132704    0.14867041384401
C           4.20768074768219   -2.97358884205232    0.90002175612248
C           4.70313495515298   -2.20344972421435    1.95176142887211
S           4.02617073200804   -0.63319189166365    2.00219979012239
C           5.68021481519773   -2.95169458605419    2.65129124932785
C           5.82888940523130   -4.18999246706305    2.02829580721527
C           4.89477002634115   -4.31709706423378    0.84912052858467
C           5.68025635961742   -4.46646921346318   -0.45824668019206
C           3.91040988590375   -5.47487031975639    1.03095597952509
C           6.81457566764726   -4.97349685757104    2.61816326626290
C           7.40737634873884   -4.33064390662442    3.69101749050403
S           6.72529044083142   -2.74725755547558    3.99294349635813
C           8.44925450585847   -4.79969978135280    4.55280177616264
C           9.49284591390630   -5.70156925374300    4.38688152564813
C           9.91094560066066   -6.44192023216747    3.19132064286523
O          10.49495323567852   -7.49240349080907    3.23303758348906
O           9.62469106363395   -5.87608834439001    2.00304477709285
C          10.12630140394796   -5.71719016746402    5.67802549187329
N           9.50332761536743   -4.88222611397520    6.48592341384812
O           8.47935512375239   -4.32603128406532    5.80722737408754
C          11.29010825913518   -6.40837786893449    6.14237885422021
C          11.82511839541838   -6.22481554672251    7.40915140767538
C          12.98919734533369   -6.95337844041090    7.59243446542184
C          13.33759988139118   -7.68741114072766    6.45624893971959
S          12.22019188137345   -7.51235800507242    5.16848545257355
C          14.55536052565385   -8.36081938985714    6.71072065367980
C          14.98737168090626   -8.05849325068946    8.00586226646755
C          13.99964556550806   -7.14902434793467    8.69824780670911
C          13.36681857935309   -7.84501190245200    9.90714992930463
C          14.64493001208818   -5.82380924371726    9.11044840470500
C          16.20802629393900   -8.63333281640244    8.30899398757320
C          16.71236242605769   -9.40499211115259    7.26601225036865
S          15.64079332699390   -9.37808918685347    5.87122247532972
C          17.98506235283728  -10.01227225194240    7.24681172993359
C          18.51634355326886  -10.90260913208518    6.36417010155847
C          19.99341188912893  -10.99515467693007    6.21584857951233
O          20.81944434188822  -10.55737337407585    6.98823113651849
C          20.20541966724796  -11.66676082795350    4.91913424084897
C          18.97789009600159  -12.08939986597673    4.40871331468007
C          17.92628961873830  -11.76790213811703    5.36932811162372
C          16.71584485723192  -12.40192608521286    5.47363101905673
C          15.88259553427349  -12.26659588722427    6.60359770039191
N          15.21430317913289  -12.21964203400820    7.53580308813491
C          16.22886785590112  -13.33670329016348    4.53923623358007
N          15.78550612400283  -14.09855942531191    3.80373574417635
C          18.90228312290497  -12.73398242864822    3.16795169605208
C          20.05978032659586  -12.94121070648301    2.46361423953906
C          21.31961163952806  -12.53314810929540    2.95434779761566
C          21.40765325486989  -11.87656156313923    4.21645943664508
C          22.66716280683958  -11.46719162068320    4.69987438996700
C          23.79508369425684  -11.69931759748090    3.96244133802121
C          23.71459881191910  -12.34627741052941    2.71868176952696
C          22.50598913862629  -12.75436743201282    2.22533069964233
H           4.47090584984665    4.67771964561936    1.35988544183230
H           3.14125466698718    6.73621899281385    1.47919060117845
H          -1.08714591799534    3.82442338571187   -0.57773735171077
H          -2.36031007855179    5.93623260731609   -0.45633283508046
H          -1.28780621049873    7.98742004766505    0.38144014420381
H           1.06265546719971    7.95584947290583    1.11064750909574
H           1.28851006918367   -0.43621210421751   -0.45932499063117
H           2.74596829727034   -2.70034299734011   -0.71088135271990
H           6.33700416472678   -3.61202287370796   -0.60243244984426
H           4.99358340994338   -4.51903370864483   -1.29874319181220
H           6.27838583528951   -5.37369638376163   -0.43434478518333
H           3.36289218253834   -5.36560189026039    1.96437925964394
H           4.44686081222463   -6.41998396277348    1.04889172731028
H           3.19953128533395   -5.49112490778910    0.20908648176312
H           7.07299125181539   -5.97041600626229    2.30911944828274
H           9.20252558646358   -5.00929454042586    2.07825456766164
H          11.35832122285237   -5.57379920918170    8.12451613864908
H          12.92750529477326   -8.79348328495295    9.60794583491908
H          12.58856652868807   -7.21662872381686   10.33256005394749
H          14.12194397669214   -8.03519242961571   10.66561812946377
H          15.09433242184676   -5.33744405434383    8.24772161824585
H          15.41778072548321   -5.99938496094944    9.85453367805853
H          13.89427936262513   -5.16084391466921    9.53260638379107
H          16.73013014513101   -8.52872402389602    9.24308450742704
H          18.68470077329073   -9.63312911111234    7.98656180535974
H          17.95183859104353  -13.04776979755651    2.76731251031379
H          20.02050425514658  -13.42984728613063    1.50060262195352
H          22.71559722561785  -10.97063153692368    5.65618045310044
H          24.75945254937847  -11.38482584588547    4.33284270456521
H          24.61818049281171  -12.51878080394691    2.15259216079854
H          22.44190827485670  -13.25281732019696    1.26870236821336
