89
 SCF done       -188.355986582840          0.000551551759
C           3.38885482172744   -1.85811494843681    0.88334357756640
C           3.05427918596751   -2.53929653839452    2.16965800044598
O           2.38174076609823   -3.53881575604921    2.28870132030350
C           3.75882103914502   -1.76626433762079    3.20682889116916
C           4.33680523939328   -0.63342220415646    2.63130616486100
C           3.98856847308913   -0.58265519951366    1.21456232485279
C           3.98799860835923    0.54171897871358    0.43291509684989
C           3.39351402011438    0.59995935713118   -0.84489346054995
N           2.88622814658343    0.70739153149464   -1.86870968832022
C           4.49270459911748    1.79300862638414    0.84353138842691
N           4.90560663859348    2.82821008911527    1.11728563642811
C           5.09266442642552    0.25487595392565    3.40694710071168
C           5.25000658970608   -0.00835623701611    4.74282212385642
C           4.66847284921697   -1.13821525712446    5.35895395768780
C           3.89904413968886   -2.05055390543748    4.57919983880256
C           3.32228792800240   -3.17819741524291    5.19813292780730
C           3.50009249817056   -3.39271854578509    6.53714232272247
C           4.25723886874494   -2.49766309318605    7.31003634989428
C           4.82881847699591   -1.39555356384166    6.73562732353494
C           3.19323071482348   -2.51610342239728   -0.28773897238780
C           3.76161016399145   -2.25385007044668   -1.55934676626042
C           4.91850932951799   -1.57430936548978   -1.88363029785980
C           5.18842679884518   -1.57952906031616   -3.25036691852722
Cl          6.56404473548000   -0.81023797556056   -3.92124281507317
C           4.24498260584342   -2.25607520815477   -4.01717045613571
S           3.01962267239956   -2.91978345468386   -2.98478081683814
C           4.22411441842869   -2.42371750869826   -5.42423549526415
C           3.30068920109454   -3.12233595965809   -6.19207746662605
Cl          1.95120054576364   -3.93709254617654   -5.52425530420492
C           3.56812825467506   -3.11109843933985   -7.56174092647207
C           4.70498100095839   -2.39816668165247   -7.87325792844596
S           5.44838350435941   -1.73366420185285   -6.45054546842332
C           5.26527195596882   -2.20427831681972   -9.16300739855572
C           6.39016842830264   -1.48195923544593   -9.51028807596093
F           7.13542735738164   -0.82446507151396   -8.61652682891970
C           6.67937414948147   -1.50588364201252  -10.88179787124423
F           7.73048836060520   -0.87186574869424  -11.41104347676738
C           5.78571841657617   -2.25125161521133  -11.62760280759619
S           4.56552918750900   -2.92005039649191  -10.58529613421200
C           5.79375499710824   -2.49992809301638  -13.02720649285199
C           6.66941043022686   -2.01179502533671  -13.97201088580511
C           6.38748485507553   -2.48348263075168  -15.25639355727020
Cl          7.31520916922436   -2.03356162716450  -16.62368832316797
C           5.29605626213685   -3.33890694128502  -15.32914255430739
S           4.60622843523198   -3.54678854316204  -13.74483418596529
C           4.76412663853303   -3.98656715495913  -16.47100589951255
C           3.65231481698798   -4.81565215624187  -16.55379743981758
Cl          2.67747071102302   -5.20002820178669  -15.19954658230281
C           3.40594016592645   -5.31772648008475  -17.83201079676082
C           4.30155214348721   -4.85982555963034  -18.77436574355449
S           5.49572406836337   -3.82713009413378  -18.03622375767471
C           4.35706424628648   -5.23779566852831  -20.14179122476817
C           4.99695900484281   -4.62226229498485  -21.16612132442911
C           5.34116425929475   -5.38974295805427  -22.39965232362399
O           4.87126688015188   -6.45591957810154  -22.72812879852664
C           6.39699137864954   -4.59854934065179  -23.05571709563118
C           6.56628279975744   -3.38971011535256  -22.37724352262137
C           5.58988679637272   -3.30590732124190  -21.29777647891762
C           5.11958110300808   -2.15341882927549  -20.72936845456605
C           3.96235670914228   -2.11413267924690  -19.92197504748596
N           2.99584449502138   -2.04006592531008  -19.30787754997367
C           5.66964530525524   -0.87551814035867  -20.95623037076115
N           6.08950141228411    0.18383396041723  -21.09253712329615
C           7.53309759701325   -2.46523205093797  -22.79214632642715
C           8.30478584162242   -2.76679933923028  -23.88375477528256
C           8.14939753720914   -3.97271870817606  -24.60262548162055
C           7.17442600897153   -4.92508378542316  -24.18430383152213
C           7.02782338024902   -6.12928866430732  -24.90227352896531
C           7.81234344010200   -6.37776801692289  -25.99482916825853
C           8.77122547311662   -5.44161325144531  -26.41382514867672
C           8.93770420362754   -4.26638695368301  -25.73368521457162
H           5.55361991573027    1.12189621657069    2.96225257471027
H           5.83530139754641    0.66275910508281    5.35466291537962
H           2.74346483429989   -3.85912930050924    4.59439029539233
H           3.05752728202160   -4.25605531893225    7.01098725895320
H           4.38545517343422   -2.68741464601600    8.36540250621766
H           5.41112660691506   -0.70504714853522    7.32838115901746
H           2.56960475569378   -3.40223522627383   -0.21997356955658
H           5.57573256423437   -1.12411588605728   -1.16246963753244
H           2.95678082883971   -3.60343322909246   -8.29545750198047
H           7.48122231064127   -1.34318814704447  -13.75634999766691
H           2.58199549790633   -5.96734288912935  -18.06329777512535
H           3.89631070597391   -6.19100652881734  -20.38299596628707
H           7.67596948220540   -1.54043467452259  -22.25700904092437
H           9.05841479012669   -2.06756421199162  -24.21610710216688
H           6.28822512553853   -6.84110454227158  -24.57130745999499
H           7.69870808438394   -7.29977868762754  -26.54504045881854
H           9.37878770324387   -5.65786873280212  -27.28006054659803
H           9.67478325858935   -3.54441359819098  -26.05419761554580
