105
 SCF done       -192.092141848701          0.000917955755
C           3.85068768728756    0.29364895480818   -1.67455700870451
C           2.71528312226554    0.10189645887149   -2.61961556267213
O           1.76930022352824   -0.63764654252220   -2.45660509072043
C           2.98033043247514    1.03702993920440   -3.72862844421875
C           4.23420625847115    1.62434323733768   -3.55323896807278
C           4.86796717152579    1.05227211158354   -2.37002220660260
C           6.21651860825507    0.99211427578491   -2.13713166334514
C           6.78827421285770    0.17158751030265   -1.14207196675278
N           7.28694397800007   -0.52304991441197   -0.37611636639987
C           7.18475484364934    1.65025572346267   -2.92164350077765
N           8.01331342370375    2.16921103467918   -3.52306484578062
C           4.71081745160911    2.57973561854203   -4.45922513539640
C           3.92266415831024    2.92327296471037   -5.52656212626119
C           2.65641969600341    2.33655503948278   -5.74355010251260
C           2.15993140946522    1.36576605380138   -4.82524191960566
C           0.89488003459971    0.78428386422228   -5.04612195075023
C           0.15184448901933    1.14838691688247   -6.13498938267177
C           0.63570089855446    2.10411027743878   -7.04279805281809
C           1.85896583018071    2.68582112599789   -6.85234871462800
C           3.75019615699837   -0.13888211947389   -0.39011498400094
C           4.48504266960450    0.27750008186150    0.74475226617023
C           4.61691178519591   -0.42515727467962    1.93630293918547
C           5.37507357323722    0.25604283976706    2.87322795515381
C           5.78853733513541    1.51282682294197    2.42097870284091
S           5.26982585903907    1.84768794143425    0.82679758840718
C           6.54561915940948    2.14631363714112    3.42933282998607
C           6.63605081085784    1.28401634624062    4.53043739618725
C           5.88902060446083   -0.00306878598939    4.26976009479979
C           6.83340773358841   -1.20841690238219    4.29045506628648
C           4.74282047569797   -0.19161326202500    5.26761574348249
C           7.38532729376926    1.81926613127522    5.56434620639182
C           7.85616513080132    3.08727871285627    5.25036872451804
S           7.37239847748366    3.62831498472879    3.66316675354984
C           8.65961555486886    3.94582071698390    6.04415631805973
N           8.95980442626832    5.14255177677697    5.56300990084251
N           9.69203937274143    6.00887309415010    6.19373079721711
C          10.23896313451555    5.78397294859378    7.37852114920305
C          10.00162049085427    4.52614235104132    8.01616168830629
C           9.16858784384969    3.57516250836844    7.32812788897199
N           9.07491214561199    2.50864434444245    8.09193250565695
O           9.79837149820344    2.77108659202182    9.18238094380634
N          10.36441901917667    3.97944831166168    9.15598465667290
C          11.03128248984655    6.80957531059352    7.95630796933549
C          11.73650174389466    6.77689270521297    9.15197760481918
C          12.40284414663385    7.96834774910058    9.38261283724968
C          12.19544093221238    8.90737047478125    8.36305824563036
S          11.18638695722849    8.32557243299783    7.10649774227445
C          12.89747878997565   10.08899488292708    8.68445900084837
C          13.56530672819430    9.90830545141498    9.90262037162178
C          13.30411512275802    8.52855113468484   10.45769997120640
C          14.59332443197178    7.71194853772293   10.58300391626722
C          12.57935499540880    8.61486804203901   11.80423198447271
C          14.24558880249593   11.03818050900688   10.31336093471484
C          14.10632727903044   12.09812849536081    9.41994007912958
S          13.13503254452178   11.64641656331584    8.02755241529167
C          14.65413205682546   13.39547029564146    9.45838986507940
C          15.20427518300977   14.08308726364864   10.49898776173045
C          16.08212726498195   15.24887710407692   10.19844222339351
O          16.18634663574953   15.80151328757551    9.12497963030036
C          16.80457226387423   15.52437574949938   11.45324199151531
C          16.31421652709592   14.69382599558230   12.46076237764145
C          15.21037880306698   13.89527136143812   11.93026098842402
C          14.22885141956601   13.30643441596043   12.68628791188636
C          13.03362552566641   12.78235549894581   12.15476552480112
N          12.02615169360072   12.37680935790581   11.78210897142073
C          14.25141422876586   13.22174811141158   14.09304593984948
N          14.22502865768013   13.08987123864539   15.23336172721458
C          16.86312083533205   14.73577436024457   13.74862490152390
C          17.88454509281105   15.61459779402050   14.00073962185461
C          18.39060744007708   16.48196951530828   13.00824720767447
C          17.84412498006001   16.44324436897480   11.69230902379343
C          18.35268043001609   17.30941546634004   10.70293665732702
C          19.36114682936807   18.18158079731655   11.00652294035170
C          19.90314143102134   18.22448623735425   12.30136767901382
C          19.43065157389794   17.39407309135317   13.28013364039879
H           5.67139688201315    3.04671024845652   -4.31290072783890
H           4.27005361722881    3.66426311286831   -6.23201282135722
H           0.53355138354212    0.05198339619091   -4.34150153215833
H          -0.81632177326750    0.70139371888593   -6.30459551273838
H           0.03173559883099    2.37735691794921   -7.89541762011838
H           2.23359864871948    3.42099541262655   -7.54989249826377
H           2.94732341050429   -0.84481460629124   -0.19823734880523
H           4.19768589632869   -1.40613503692946    2.06885284348501
H           7.62814764144220   -1.07660536411363    3.56033666005388
H           6.28534484661686   -2.11491955674302    4.04706192477884
H           7.27590314752776   -1.31749540924995    5.27725106185016
H           4.07411529408754    0.66588439051642    5.24326422467373
H           5.14014571402415   -0.29566711474766    6.27389084950899
H           4.17489390352551   -1.08465374689426    5.01973910891045
H           7.60165707337473    1.34761033601547    6.50571518731981
H          11.73797101180395    5.91179861333975    9.78995441777940
H          15.10273252429206    7.65719337953073    9.62346118104698
H          14.36241011669059    6.70272882969286   10.91373122480834
H          15.25979637770127    8.17438446717217   11.30674214150764
H          11.69283725211320    9.23789754317224   11.71592435875232
H          13.23371769075073    9.05395568102164   12.55307592403585
H          12.28346543263078    7.62207366978770   12.13292893181183
H          14.85557285101209   11.09803265772683   11.19661766529649
H          14.70709689359578   13.91268674841213    8.50453068585670
H          16.50088180419018   14.08276593128416   14.52600789644568
H          18.32351584616605   15.65507258236430   14.98720786106131
H          17.92848644039463   17.26658282252802    9.71223634249348
H          19.74923153224448   18.84619737541842   10.24920997648420
H          20.69913522143250   18.92130883659461   12.51867834420969
H          19.84570940260021   17.42599411500255   14.27719946810309
