109
 SCF done       -195.838635396502          0.000289772906
C           1.09011218114174   -2.01391307847380   -0.36017284056393
C           0.37776650114733   -2.89136205257547    0.61164562261817
O           0.34557375082181   -4.10229136859750    0.58285388381965
C          -0.21043761433886   -1.97433407856708    1.60426964620757
C           0.01303757801043   -0.65607098309141    1.20604317985650
C           0.68193122738262   -0.65352104952567   -0.09329432371863
C           0.67096314317063    0.39081107474840   -0.98192721740632
C           1.06722559676724    0.28520606794866   -2.33031981408758
N           1.33994184670058    0.25478850028282   -3.44511808932526
C           0.18782387510877    1.68176534456973   -0.68565088503494
N          -0.15966539717898    2.76012525048368   -0.49981796126417
C          -0.41776611614735    0.41225901839713    2.00297316316734
C          -1.07402390161103    0.13700077257670    3.17441887077551
C          -1.33710160810755   -1.18513273938088    3.59436577501295
C          -0.89468159703684   -2.28041422872533    2.79634981827913
C          -1.15846226727379   -3.59905695919270    3.21976347541094
C          -1.83751565376777   -3.82317803295915    4.38544004575670
C          -2.27647981173045   -2.74801252474384    5.17501049728606
C          -2.03140221880463   -1.45845117880034    4.79042922807355
C           1.99089799814611   -2.57300988848421   -1.21493941342836
C           3.01656721491545   -1.95638430024317   -1.96253690980506
C           3.62664892069754   -0.71919383719558   -1.78233993708006
C           4.60183170549946   -0.46726319672598   -2.72964706541959
C           4.75021965986170   -1.51347172778390   -3.64641990481960
S           3.71332385630005   -2.82997329997375   -3.31698283443508
C           5.71301684073777   -1.14043726889994   -4.61292432828457
C           6.17344328349148    0.14515474323620   -4.32070299313391
C           5.50735439435880    0.68875236789164   -3.07935673234313
C           6.53020347842550    0.96653666631675   -1.97419487773650
C           4.68565585894574    1.94327918832311   -3.39136710615381
C           7.10673472824944    0.60370103483848   -5.23924307291464
C           7.35989343686149   -0.33248461832978   -6.22807758021768
S           6.43560572019035   -1.80171799179365   -6.01777765830514
C           8.23393053942762   -0.22921609108040   -7.35605600995189
C           8.93380577028457    0.88743932634904   -7.69747714995448
C           9.76128694961671    0.89517963089450   -8.86088554761905
C          10.49258532604758    2.01132785954707   -9.23688729256356
C          11.30076959871289    2.00619158869843  -10.38304781336621
N          11.95880876947933    1.98435940393853  -11.32530360705739
C          10.46362601734928    3.19481020679899   -8.48491116893922
N          10.43083774143703    4.15615892513699   -7.85561553999917
C           9.79211308043150   -0.31884402167144   -9.61171794540701
C           9.07180743727488   -1.39993642124028   -9.20504017076005
O           8.29713178449848   -1.37120729933506   -8.08946506586375
C           9.05951723135083   -2.66821752832791   -9.86747398495117
C           9.65435522138069   -3.02459363990771  -11.06628836231600
C           9.44595131531910   -4.36261999268362  -11.36855391928228
C           8.69509353933030   -5.02668339781987  -10.39623908621381
S           8.22367896969348   -4.00239113241005   -9.10692842457214
C           8.55836689579413   -6.38389216755712  -10.76997561238584
C           9.22081849480501   -6.58639708606406  -11.98554506338050
C           9.83461634004269   -5.30123451281468  -12.48564962218988
C          11.35517323969653   -5.41028308570917  -12.62406025269512
C           9.19453915978461   -4.87843964476894  -13.81211693820687
C           9.12155110197980   -7.88822685034054  -12.43977003770645
C           8.38982391163513   -8.69873097061531  -11.57724206434433
S           7.84122752598046   -7.81126711189735  -10.16556328800860
C           8.11554120497727  -10.08011921063976  -11.66245501631058
C           8.17565280795138  -10.90447461346871  -12.74515457821418
C           8.29213049872214  -12.37433429251519  -12.52733472886382
O           8.10745114437817  -12.95423368057138  -11.47963565706451
C           8.72238773089433  -12.92463448519961  -13.82541484584757
C           8.72394819829793  -11.90852875326665  -14.78134044692051
C           8.24597810195243  -10.67087222179030  -14.16900257852601
C           7.72655041448655   -9.59972106918772  -14.84975624024120
C           7.03990973761280   -8.53413598075374  -14.23368576659509
N           6.44628046276096   -7.65679744461651  -13.79116939693875
C           7.74538764466998   -9.46332349471689  -16.25271542771605
N           7.75438597279956   -9.27808821189180  -17.38581533456075
C           9.12251110503904  -12.16925505303443  -16.09859728030995
C           9.50737578034287  -13.44232885632185  -16.43018164353089
C           9.50780357855827  -14.49518504745471  -15.48937903259981
C           9.10696206753116  -14.24098221613318  -14.14510734857308
C           9.11322451716560  -15.29423111058719  -13.20787361798976
C           9.49978819846063  -16.54967538343101  -13.58810398479699
C           9.89428246193533  -16.80607086719586  -14.91127922699215
C           9.89870588897346  -15.80312542228620  -15.84134640066470
H          -0.22854261867280    1.43229152124196    1.71042685611449
H          -1.40821183619821    0.94938404500682    3.80349794399114
H          -0.81620399161020   -4.41663853389125    2.60520868902129
H          -2.04210659854992   -4.83314038156724    4.70783602207568
H          -2.81114501699880   -2.94845643113683    6.09167956735946
H          -2.36873409880124   -0.62952285808369    5.39579275993965
H           1.93792821250630   -3.65578519149794   -1.28175435067295
H           3.37987969732370   -0.06205074823123   -0.96792443694375
H           7.11367404241135    0.07308813764705   -1.76304364440698
H           6.02162688738423    1.27475761435236   -1.06429141258143
H           7.20559441344506    1.76000366602129   -2.28331041272256
H           3.92246570100640    1.71952170930805   -4.13271696845128
H           5.33196244321229    2.72892483986173   -3.77385427576473
H           4.19413153431008    2.30061169953570   -2.49006142746850
H           7.58419507343110    1.56502166463184   -5.20126891923752
H           8.86260491731753    1.77811817230025   -7.09690425461906
H          10.40097811999739   -0.37375325088949  -10.49792937698146
H          10.20468322117607   -2.33532654888490  -11.67914497397939
H          11.80256583856786   -5.70756206558297  -11.67819962307025
H          11.77156224242731   -4.45134811342742  -12.92125129843582
H          11.60899595366193   -6.15043570575974  -13.37857422029748
H           8.11188674529340   -4.84982182344274  -13.71648091718417
H           9.45147581672504   -5.58954477023652  -14.59305288533130
H           9.55047327472576   -3.89334882183822  -14.10239017790991
H           9.59078797211262   -8.26268696795859  -13.33168916170213
H           7.89444065969568  -10.58051592735053  -10.72423966656783
H           9.13949224808952  -11.38428031952749  -16.83713743485624
H           9.82304839322119  -13.65926127424406  -17.44048298408462
H           8.80851512293988  -15.08524129239379  -12.19458098273000
H           9.50456031282283  -17.35604512011515  -12.87004226289453
H          10.19579930728962  -17.80513527492150  -15.18930197579515
H          10.20125591993815  -15.99794584639585  -16.86012293360776
