110
 SCF done       -198.736172171376          0.000425933800
C           0.95367768908394    0.49374639706274   -0.48193147287575
C           0.34074485348926    0.19769863594646   -1.80691539518347
O           0.34713185828560    0.92975649303364   -2.77287583209884
C          -0.20767308481730   -1.16512745650349   -1.68463092541934
C          -0.06811408390751   -1.60281147518597   -0.36782025366462
C           0.51378772251402   -0.52900900225410    0.43607484641314
C           0.41260433554823   -0.41872387631796    1.79979914398409
C           0.73848482974217    0.75005021705899    2.51628937656593
N           0.96098689165786    1.68655578440140    3.14209789742218
C          -0.10350487542603   -1.42333021149548    2.64270622193039
N          -0.48359596671552   -2.21306629136387    3.38450384570578
C          -0.48305367932636   -2.88788127524145    0.00358449068497
C          -1.03212663477796   -3.70407956660682   -0.95121312915755
C          -1.20028555796907   -3.28627262756749   -2.28934037189842
C          -0.77955793504339   -1.98132384403822   -2.67905068180776
C          -0.94761419883958   -1.56760292418407   -4.01635146092864
C          -1.51121615704817   -2.41335508366283   -4.93112743346995
C          -1.92698369095222   -3.70040061146290   -4.55310119181329
C          -1.77546870698798   -4.12832755093947   -3.26289147346927
C           1.82345404164658    1.53948962454259   -0.38574808893753
C           2.80299505588542    1.81733660054508    0.58712621863723
C           3.37852257889197    0.98849155692572    1.54754808726878
C           4.35079275318343    1.63182723019604    2.28891792794998
C           4.53308234304733    2.96571748361338    1.90213139301170
S           3.52331078286434    3.42023598772090    0.60299113692088
C           5.52257835766152    3.54816741776575    2.72282334278221
C           5.97248045377381    2.59542876450235    3.64176500857108
C           5.25078651251724    1.28300133522634    3.45018557471538
C           6.22780611696351    0.15717575055037    3.10216098988459
C           4.42392780332363    0.92277497358938    4.68858648910919
C           6.95991762770346    3.07992268380798    4.48458908014338
C           7.27206270774697    4.40433818202754    4.20984612406543
S           6.31640827887500    5.05636777148439    2.89061146923448
C           8.24369544405297    5.20946658199811    4.84903755382254
C           9.10507071917406    4.91603583090099    5.88586141460129
C           9.40929320311792    3.77298351691552    6.75197288514074
O           8.93558056541195    2.66023255525415    6.79412063334584
N          10.42634701554808    4.21827577478324    7.58684326351687
C          11.02561432716944    3.39492055187390    8.60717368634872
C          10.81985958527238    5.52861421388400    7.34830713315555
O          11.69506467897531    6.09409908367649    7.96292137756360
C           9.96445988450052    5.98546826192267    6.24812204263286
C           9.78889328475670    7.13040371327287    5.49930414598892
S           8.51475068945525    6.86091546978046    4.32459362671365
C          10.46790317972010    8.37019450847970    5.55128835011354
C          11.50490854216302    8.72823572439320    6.40182011606006
C          11.95774377791988   10.01389722050183    6.15279379888808
C          11.26660442420920   10.64529893778852    5.11439101829571
S          10.04495082145238    9.65586846929515    4.43469235419369
C          11.80641446834343   11.93457626821914    4.91863596489577
C          12.85271932691850   12.13098429039029    5.82907219874136
C          13.02868867852544   10.91916058112061    6.71257480421751
C          14.41818979938755   10.29482627448547    6.56286174974579
C          12.74425030880952   11.26944307145351    8.17672710747540
C          13.43079646338028   13.38079510175398    5.71754240921214
C          12.83735972030575   14.15753834357286    4.72495621284389
S          11.55220629047513   13.28384985737706    3.90427059408109
C          13.15743544525766   15.45089074103534    4.26902154816653
C          13.92447412285654   16.41989170059334    4.84543786266137
C          14.46886890808575   17.50423134021093    3.98142621559622
O          14.11560519757320   17.75681099180042    2.84984108970326
C          15.53371895459577   18.13839199522746    4.77955976315662
C          15.54202090724246   17.58642265313677    6.06030926446766
C          14.45040139186293   16.62036489141349    6.17411066650550
C          13.88470600516077   16.20166716183146    7.35176543573089
C          12.66887951028236   15.49332283370449    7.42708094833942
N          11.66956588513829   14.94089839238284    7.54635813256326
C          14.40059753680718   16.49447649944693    8.63010559955887
N          14.78439756438070   16.67431620281935    9.69724898306680
C          16.48773119597965   17.99863434365559    7.00756250668498
C          17.40067793317197   18.95759363980816    6.65232199059437
C          17.41037898138352   19.54591289987090    5.36889459718237
C          16.45465546490354   19.13174345677081    4.39584132337615
C          16.46873164925105   19.71925044899959    3.11426310621129
C          17.39240728205555   20.68036357855672    2.80955175286147
C          18.33614905454406   21.09267961123303    3.76432872044097
C          18.34633883858249   20.53909742945751    5.01498908538233
H          -0.36266447374077   -3.23703304968724    1.01629917185357
H          -1.35062539133948   -4.70115699102162   -0.68313397036519
H          -0.62368977963681   -0.57714442539796   -4.29447197204527
H          -1.64076535211080   -2.09593878221985   -5.95502874699076
H          -2.36872320855965   -4.35197552328388   -5.29252771929829
H          -2.09539212330262   -5.11785249212536   -2.96972714316056
H           1.79637782464458    2.21977529723240   -1.23241134444883
H           3.11624705416409   -0.04864256400025    1.65348639352857
H           6.81036167711424    0.41781640661049    2.22117577476008
H           5.68290913269055   -0.76195903881068    2.90182430942109
H           6.90766553259258   -0.01080519777017    3.93322887117228
H           3.69600353604241    1.70308237116712    4.89677731202395
H           5.07688543374682    0.80846983870556    5.54983686201410
H           3.88970552946896   -0.00931879037091    4.52269272151922
H           7.45009103940886    2.52620692500179    5.26485172391575
H          10.55407153214843    2.41502361403899    8.56161874610617
H          10.86662852264733    3.84098004865378    9.58978338414188
H          12.09810220249494    3.30419952269041    8.43114614308515
H          11.88884757040688    8.05858369724496    7.15015790462084
H          14.61479931985252   10.04959377226858    5.52139997549115
H          14.47861196420964    9.38447750091673    7.15338110138549
H          15.17947444492866   10.98974940993675    6.90836416877787
H          11.77836090417808   11.76040003797257    8.26692509142487
H          13.50850358949118   11.94392776275116    8.55448741385907
H          12.73991384878437   10.36542724723391    8.77997854917829
H          14.27668297447292   13.71554678370359    6.29032359656663
H          12.80272828096658   15.69861868504015    3.27244469447101
H          16.50895783320097   17.56375473321628    7.99366199195886
H          18.14130034819871   19.28207337092058    7.36902659630504
H          15.73917965925361   19.39384582478901    2.38959347143264
H          17.40253701611414   21.13070088524035    1.82822309277605
H          19.05671953842883   21.85308192788429    3.50164798589694
H          19.07111796829342   20.85529508324332    5.75130986050171
