121
 SCF done       -232.110340076289          0.000453054827
C           3.32737203286341    3.64369062629522   -2.13664468951503
C           2.82848036541763    4.95032790297841   -1.59577550496724
O           3.44501548827432    5.69400756187422   -0.86923249840652
C           1.50101007682820    5.12797820162251   -2.20333420890859
C           1.14123080415485    3.96316684479743   -2.88323566364120
C           2.18899309820851    2.96320752417778   -2.72314721302497
C           2.04829347825766    1.61972778783467   -2.93050690813390
C           3.04511470438190    0.66698799202337   -2.64863909248913
N           3.81241996411877   -0.16166439453520   -2.44131428328645
C           0.86429528210258    1.00886846982903   -3.39977645374326
N          -0.06497908996112    0.45150356246494   -3.77503634801703
C          -0.06291752328508    3.89509550241219   -3.59581401426641
C          -0.88062241092963    4.99427955497543   -3.60874611750480
C          -0.55276043950769    6.18393438433753   -2.92126664353821
C           0.67092930238405    6.26578728010860   -2.19424032436269
C           0.99792836030041    7.45689930818571   -1.51528235038132
C           0.14359016868549    8.52462679020253   -1.55178401077948
C          -1.06409089090835    8.44910162942161   -2.26390215472276
C          -1.40549501932710    7.30596207718842   -2.93396241938019
C           4.66027034124144    3.42668002889799   -2.15054521738213
C           5.45174571540596    2.45372347985993   -2.86069736028682
C           6.68367267445923    2.03489145081942   -2.13964125066415
C           7.75795384004301    2.91619194937971   -2.05786557465426
C           8.90225966192341    2.55544761581726   -1.37450344157211
C           8.99652612008774    1.29867234295210   -0.78091894217884
C           7.91904677532489    0.42007427372994   -0.86058988229115
C           6.76418826713229    0.79167321475213   -1.52444557265443
C          10.24866196680724    0.95577493245127   -0.04025534458196
O          10.90892030919396    1.76794001236834    0.54121213180490
O          10.60761785917378   -0.34331488779419   -0.06378093110280
C           5.20892580384864    2.00654427037948   -4.11545137477759
C           4.12128180310970    2.50411287774096   -4.96928823436390
C           3.30642000807727    1.59689480243107   -5.64848230769050
C           2.21157080567687    2.04419953749368   -6.36033578923519
C           1.92213999005704    3.40537884736466   -6.41525776806755
C           2.77492673612367    4.31967969534815   -5.79858279626445
C           3.86818870006355    3.87071198730436   -5.08947893481823
C           0.70507538241283    3.84329071464060   -7.13436839516602
O          -0.01633109206671    3.11482124698229   -7.76599020512403
O           0.45745160238836    5.15705040531415   -7.00465495218037
C           6.09063840118505    1.00587448256959   -4.72239320136821
C           7.05629665067358    1.23448544788722   -5.66251103605176
F           7.30781662237418    2.44894296595100   -6.16348856313625
C           7.79336316033307    0.08354003293750   -6.01606792173182
F           8.78086783519232    0.11906643538438   -6.90803010396844
C           7.36840052168529   -1.04931601645259   -5.36684292253461
S           6.03437819400444   -0.67168658234723   -4.31480595591505
C           7.88690794194434   -2.40342972109272   -5.41772475762701
C           6.87183165083393   -3.46024604679465   -5.47437539999711
C           6.96111641196676   -4.61760737793963   -4.70027557775778
C           6.06594239313214   -5.64968788346157   -4.88802739224720
C           5.06655484696819   -5.55012802130845   -5.85516488831767
C           4.90450182228151   -4.35566432351368   -6.54884496188743
C           5.79597785206289   -3.31829046322330   -6.35306798939584
C           4.20180775383241   -6.74446144847808   -6.11512333760844
O           3.88164144532751   -7.50991515075286   -5.24714010193797
O           3.82871957414598   -6.93664073525447   -7.38424788043049
C           9.23576094327814   -2.63129192579843   -5.38054828882822
C          10.14528484294380   -1.50223330725090   -5.07916089575981
C           9.90692580254925   -0.67617064541548   -3.98032752716161
C          10.72667170551456    0.40256075391717   -3.73441056354423
C          11.81046631983548    0.66446620275766   -4.56961171384323
C          12.07930362374002   -0.18184496475471   -5.64027348522567
C          11.25081928588506   -1.25903841385866   -5.88907279423337
C          12.62424419729002    1.86895546137806   -4.28683185156804
O          12.30976890843126    2.72753316772486   -3.50120193727280
O          13.75685645389855    1.92697357800150   -4.99927308642847
C           9.91533652566848   -3.88953280143475   -5.50398577977559
C           9.63322220000267   -5.07827193162526   -6.09403466904204
C          10.45383278180256   -6.25922023664254   -5.67080338536501
O          11.52431925726049   -6.20772697720767   -5.10980778048296
C           9.64586427720069   -7.43552146348451   -6.02574335583687
C           8.52008244040746   -7.02576831718759   -6.74339825135105
C           8.57288926231071   -5.58053529943764   -6.93745675811891
C           7.87425446799795   -4.86416749021217   -7.87412355534632
C           8.17243348672109   -3.52065942960757   -8.17952258721892
N           8.41807566313681   -2.44035054483946   -8.47525849266827
C           6.78893869408326   -5.38186862275861   -8.59797411232457
N           5.83420887525130   -5.74004031068652   -9.12984412137179
C           7.57053359426451   -7.96391384177697   -7.16771182797894
C           7.76384104905743   -9.28555624893857   -6.86069345191135
C           8.89679722837836   -9.73241656573373   -6.14649903583560
C           9.87475518066020   -8.78935309446999   -5.71320889556963
C          11.00598982808586   -9.23908839359874   -5.00214176487273
C          11.16289500559892  -10.57110812845651   -4.73387438820098
C          10.20297991003459  -11.50411012808711   -5.15834568270689
C           9.09432055258263  -11.09569754634000   -5.84829854943237
H          -0.33386981601850    3.00433449201534   -4.13887405368500
H          -1.80992321260589    4.96183828394707   -4.15871304551353
H           1.92806422790330    7.50373808150758   -0.97132426046649
H           0.39365612950779    9.43649030136355   -1.03079585341433
H          -1.72356059888147    9.30399247017868   -2.27891307496890
H          -2.33509507912506    7.24572595035077   -3.48093825857457
H           5.23441051359268    4.10910062797291   -1.52809036560430
H           7.69675592997227    3.88321229128008   -2.53433055806366
H           9.74131648593383    3.23034475929232   -1.30140633060100
H           7.95055388385332   -0.54260667815456   -0.36714446349887
H           5.91739460516342    0.12354963574044   -1.56087851309210
H          10.01515911742295   -0.88076458368185   -0.60560134075815
H           3.51408938371559    0.53837644926884   -5.58285229971476
H           1.55674410598542    1.35201052224840   -6.86723229982188
H           2.57012368790077    5.37562766343028   -5.87750653501876
H           4.53547788055458    4.57707725493237   -4.61906152498715
H          -0.34179898430448    5.38714401118117   -7.50396309320434
H           7.74323851507558   -4.70547271435304   -3.96100784618860
H           6.13566237360788   -6.55802583984925   -4.30896625984907
H           4.08752307146609   -4.23145397719494   -7.24519529521457
H           5.69331590603030   -2.40791388706579   -6.92513953465802
H           4.26282705813773   -6.34724178108013   -8.03052944087667
H           9.06836203881692   -0.87952600239138   -3.32761672761119
H          10.54492431380745    1.06898601516080   -2.90568234018299
H          12.92333023501814    0.01909322698979   -6.28040265035619
H          11.43268726267864   -1.89823865667884   -6.73963450027976
H          14.24527537138300    2.73450807467638   -4.77506062867433
H          10.87023936010593   -3.90624291132188   -4.97982654038849
H           6.69441486370185   -7.66089212954493   -7.71558183317143
H           7.03143296652172  -10.01634250402948   -7.17031766453345
H          11.73631938933403   -8.51410296965782   -4.67934877784467
H          12.02998859874153  -10.91541741363836   -4.19059170268758
H          10.34739711737712  -12.55045048868920   -4.93432103814831
H           8.35436683363528  -11.81097310832075   -6.17595772280239
