111
 SCF done       -209.430827684417          0.000351472310
C           1.83039121381977   -3.75094866668628    1.39128722607765
C           1.39646600079760   -4.67296866406232    0.30645701608202
O           1.32156667473239   -4.40280223473662   -0.87287010646347
C           1.14646004266307   -5.96211871883596    0.97869327714049
C           1.26289425523763   -5.79709686215413    2.35946441688866
C           1.52911585163770   -4.39229476441644    2.65164549801089
C           1.24795528021499   -3.75534319919422    3.83208456120886
C           1.24183946514020   -2.35114233162890    3.96569008751994
N           1.17669195916506   -1.21219457405810    4.09575322709244
C           0.83192400971872   -4.41242344581879    5.00703593718998
N           0.49763760745530   -4.89607621689695    5.99301726627210
C           1.09848244075924   -6.88344971706319    3.22737418103965
C           0.81502105409392   -8.11354732633572    2.69350719332290
C           0.67616264617856   -8.31319861286818    1.30236392262973
C           0.84636117385507   -7.21491826371126    0.40956425931852
C           0.71081757435411   -7.42130825358354   -0.97840098697119
C           0.41561597144700   -8.66570498720670   -1.46268222150455
C           0.24512616382850   -9.75079466695364   -0.58789734498356
C           0.37262373951891   -9.57993021148915    0.76318394133758
C           2.47109190465130   -2.58896673001004    1.08899114053135
C           3.31528634434487   -1.80978042690565    1.91075243593518
C           3.65618279813296   -0.47593912528801    1.70720538151954
C           4.53119463695634    0.00039796453147    2.66515290063935
C           4.91102421730882   -0.98345149902005    3.58788691072798
S           4.16144277536855   -2.49185563000421    3.29265638545844
C           5.81052794323621   -0.43237503574842    4.51864917564058
C           6.00287163591579    0.92190691689548    4.20642776113745
C           5.18862950073472    1.31926529994273    2.99709619474757
C           4.13646984671151    2.37040451133591    3.36443829812212
C           6.08030562400176    1.81646542009397    1.85694414711558
C           6.86552406724987    1.54919811957222    5.08117638983050
C           7.34316138667504    0.68555351144018    6.06861647470588
S           6.70457260207490   -0.93559048851761    5.89406687752967
C           8.22078893794090    1.00972362310620    7.13386246501082
C           8.62533977828009    0.04202189722782    8.08185673331553
C           9.47173621749436    0.35468807917725    9.19495306293470
N           9.80448182401782   -0.62141159040140   10.06122955115836
C           9.36314868888721   -1.82396378459983    9.87956804651560
C           8.53006499812411   -2.13446882723253    8.77512298977125
N           8.18750592844191   -1.22167048848080    7.92451481817286
F           8.08059215645492   -3.37053034534625    8.57923043578201
F           9.71600100914795   -2.75770156767410   10.75800063746504
C           9.97126710779900    1.65537615978118    9.43323782485444
C           9.59763855578727    2.62648794274870    8.47048832506057
C           8.74285574369110    2.31054254080057    7.34550006915004
N           8.52851253559603    3.37982215283929    6.57935527342885
S           9.30840979242807    4.64182149875084    7.19247935013990
N           9.95939767083958    3.90921969025783    8.46370542040622
C          10.77115428107080    1.94898886142695   10.56685167360375
C          11.29074773790407    3.19351655367927   10.92715720480706
C          12.00177431418529    3.14437984569898   12.10815302347877
C          12.03860604871777    1.85578883203792   12.66215310921794
S          11.18873020870136    0.69977369910303   11.72005360642813
C          12.76783210925178    1.90289764167638   13.86495205956256
C          13.19457394680901    3.22045599087542   14.09621615380753
C          12.74931993842325    4.12958372919216   12.97583354942550
C          11.82752190460885    5.24474485259199   13.47546691700300
C          13.96070006182572    4.71126930826135   12.24037327233173
C          13.93946948686367    3.34830943018438   15.24936294718514
C          14.10032073860034    2.13467088590868   15.91953049451889
S          13.26641869985826    0.82646006630849   15.09321144333410
C          14.75274825911735    1.84881501548877   17.13211376375821
C          15.65046465873291    2.59335910244442   17.84207548632826
C          15.85396780516568    2.28109397691154   19.28333500813648
O          15.46990322197715    1.28455530620410   19.85686355751632
C          16.56122980474501    3.44994195138401   19.83832504693144
C          16.87525409536887    4.33259303943494   18.80538129943803
C          16.45186082442899    3.75134265458664   17.53193677918996
C          16.94825814439548    4.10178184625089   16.30120388805031
C          16.74738081569850    3.34586079558483   15.12918200416659
N          16.64731050733879    2.75444332494653   14.15014949292916
C          17.78300383771477    5.21213309534329   16.06583730014212
N          18.43622583191572    6.11829886602145   15.79878447793825
C          17.52403147528392    5.54387961896225   19.07596306114299
C          17.84963782477470    5.84096396052067   20.37407025845119
C          17.56093108035100    4.96161542082660   21.44015434310000
C          16.89670189023164    3.72817348703120   21.17695113399691
C          16.60917980447747    2.85254891489611   22.24400532276817
C          16.96780712137241    3.18506996058098   23.52092117400465
C          17.62241793126734    4.39894157726047   23.78616068724103
C          17.91212370848996    5.26817773897239   22.77071792252462
H           1.20661812489503   -6.75876453705693    4.29270408540376
H           0.69144184318644   -8.96519993323924    3.34685139135470
H           0.84446775189247   -6.58029309118245   -1.64035439694724
H           0.31135250814995   -8.82301099062286   -2.52587293973625
H           0.01228004361889  -10.72488568367267   -0.99211747545346
H           0.24152383807539  -10.41324372206804    1.43836789124733
H           2.38210203727442   -2.26200837581997    0.05710931490347
H           3.23476681490555    0.10246643433270    0.90491407299564
H           3.49203131956288    1.99641183456218    4.15625492932979
H           3.52228913558745    2.60209640354690    2.49807496525678
H           4.62328601652600    3.28003858222541    3.70673930153391
H           6.82142853333774    1.06331615449730    1.59926585330892
H           6.59620146843009    2.72431189537705    2.15878412609195
H           5.47843263018321    2.02974823545575    0.97716645587004
H           7.16054806739991    2.58100814911845    5.04625815413243
H          11.12717401915378    4.06716779512057   10.32480374853721
H          10.96727293191170    4.82348888302837   13.99090614110515
H          11.47499629253886    5.83798802050596   12.63573532701207
H          12.36386791634036    5.89379996271527   14.16325944958906
H          14.63881049204865    3.91523919033908   11.94302255542422
H          14.49988841167526    5.39547859137470   12.89082410463112
H          13.63554469970593    5.24895346953026   11.35345949174301
H          14.32126720630890    4.27793732164980   15.63128386184682
H          14.45239587990560    0.92729493868274   17.62273373999264
H          17.75394746244908    6.23750844352250   18.28350819012302
H          18.34475601375418    6.77422180375846   20.60079561109906
H          16.10550234803404    1.92372334025144   22.02750281260690
H          16.74916019807997    2.51353478958431   24.33772193349736
H          17.89599397237607    4.64127333444062   24.80248101273551
H          18.41635455016933    6.20231133800459   22.97238200048533
