105
 SCF done       -199.806657360660          0.000761114412
C           4.47530336725672   -1.96203359630852    0.60413126968640
C           4.41299749292057   -3.38001064377988    1.08085793735681
O           5.33733664270141   -4.00883962850734    1.54785842070305
C           3.01469942297189   -3.79784019181875    0.89611397948562
C           2.31433250995975   -2.78165079392997    0.24707580981737
C           3.22848231740397   -1.68771865020423   -0.07419655399391
C           2.98753398593191   -0.70707488453139   -0.99803754910967
C           3.94584240360435    0.21661932095877   -1.45709191923054
N           4.66698144766449    1.00090252826843   -1.88558059265549
C           1.75514158365456   -0.51059225966971   -1.65552246151424
N           0.77857998629481   -0.26963541827202   -2.20926001979040
C           0.94453055798345   -2.92010039847561   -0.01455860152283
C           0.31235037183965   -4.07418882145731    0.36863916064204
C           0.99808170345638   -5.12921751248567    1.00941997873207
C           2.38923713721588   -4.99741819967020    1.28866358224109
C           3.07089981277856   -6.05080236507939    1.93137410681167
C           2.40111708822123   -7.19108699156684    2.27968608233495
C           1.03050536295022   -7.32674082438624    2.00594864847960
C           0.34331299154209   -6.31943923014982    1.38631506789381
C           5.57619793603636   -1.24497381490308    0.93757570384055
C           5.90260033626633    0.15239337083402    0.90725385391532
C           4.94000849930820    1.18841954851532    0.98712310964364
O           3.66315229839837    0.78621595723254    1.16086329848986
C           2.65279153970797    1.68947884909540    1.56558021604813
C           5.36317811329012    2.52366557962927    0.90934294385642
O           4.42660825114392    3.53346623269101    0.78650870001744
C           4.39922647918664    4.12121159926645   -0.50227272518624
C           6.72889273401190    2.82824209032362    0.89215064882000
C           7.67125965741805    1.80127991222402    0.85620689696761
C           7.26028035010791    0.49373268111326    0.85493926224678
C           7.16137692846099    4.22342849511864    0.96791320008329
C           8.13415375520319    4.77221868917132    0.12337519293438
C           8.52607053437343    6.15445535346127    0.21937373172337
N           9.52301234971323    6.62501175806399   -0.57217656450105
C          10.03895937459961    5.83976269796512   -1.44935569426664
C           9.59073976603007    4.49102922973555   -1.60402690351422
N           8.69280430515305    3.98592522191429   -0.83333127364385
F          10.11894147293645    3.71149885803949   -2.54391322679440
F          11.03182062921470    6.30824680909973   -2.20302200967061
C           7.93158486380118    7.03255543876087    1.13398459920229
C           6.99666908825831    6.47617137721489    2.01692807143162
C           6.61899411596763    5.08205905794667    1.93608742552943
N           5.73195580500523    4.75775769646810    2.88492059565302
S           5.39154978679415    6.05959610992590    3.74436444934276
N           6.34373680477468    7.10787072397335    3.00095795702720
C           8.28718497890571    8.44974605015828    1.17384905948020
C           8.31343547435003    9.20002351305635   -0.00964758007616
O           7.85660125618937    8.63775715247122   -1.18780830266587
C           6.44780679452468    8.50551085917829   -1.22923185919090
C           8.74247680097061   10.53405340162279    0.02273389546449
O           8.88186948543329   11.36181799983107   -1.03158294722058
C           8.83983446732528   10.87475474872923   -2.35864159457401
C           9.00462283153369   11.13333145467609    1.27385049237181
C           8.91781041161109   10.37901343745832    2.44333609526944
C           8.59357893698471    9.04547081213950    2.39473260556348
C           9.37023055287424   12.53004260554812    1.32429454847377
C           8.97521283283930   13.41417141978611    2.26398117783469
C           9.70340625958048   14.69895161002205    2.47659772812142
O          10.49016089059774   15.20978660400954    1.71224126652906
C           9.29569482049808   15.14844291324182    3.82115067938459
C           8.29253900443696   14.31007473433257    4.31115610219716
C           7.96107800819654   13.31269119274651    3.30061014771157
C           6.79902548458524   12.59410971653275    3.22969680013705
C           6.39824357495634   11.83216223495901    2.11092089654570
N           5.96491635744545   11.25227187498467    1.21996890406617
C           5.80561581625839   12.59802367749408    4.23132309209630
N           4.97505598661122   12.55060610755604    5.02231203606989
C           7.75580354205663   14.51155974498041    5.59030887662732
C           8.23316674810346   15.54742204363184    6.34910422146275
C           9.24130658637851   16.41873190312089    5.88041239823919
C           9.79582949692283   16.22350118176879    4.58185889305287
C          10.80523236659048   17.09290532599297    4.12060894346239
C          11.24705441131643   18.11521709110335    4.91442849142602
C          10.70407693845413   18.31219419075022    6.19423716857631
C           9.72348914579622   17.48403109199358    6.66737263623673
H           0.39116948909718   -2.13174779828032   -0.49804346161851
H          -0.74460009022482   -4.19342064776856    0.17800775681954
H           4.12331489318676   -5.93499569753102    2.13677645225095
H           2.92410251296441   -7.99873132263512    2.76978506341153
H           0.52173646658036   -8.23611307094056    2.28995778629472
H          -0.71132319311795   -6.42146588191412    1.17453930403723
H           6.36834839201647   -1.86715731005994    1.35008632693951
H           1.84711480984422    1.06080033061453    1.94767443526107
H           2.28312634553806    2.27954222782673    0.72436530016302
H           3.00672934277842    2.36034374404292    2.34894735723235
H           4.27909804791285    3.35660457396204   -1.27661638455936
H           5.31212755462015    4.68987254871228   -0.70754303082044
H           3.54346643960705    4.79456844611199   -0.50591660375272
H           8.71939092025128    2.04949694690074    0.83541639909338
H           7.98922400994581   -0.30020263268666    0.79941194680894
H           6.20598717766770    8.16967982884544   -2.23655192284146
H           5.95670293279534    9.46165793251975   -1.02330356888147
H           6.09089276504923    7.76685156023449   -0.50301051959657
H           7.81488382267155   10.68033501823887   -2.68077330112622
H           9.43504486358118    9.96776169726003   -2.47258880682135
H           9.26191489874989   11.67525258337900   -2.96667607505947
H           9.15349005211977   10.84595260321201    3.38823151628342
H           8.56858887706763    8.45085136690314    3.29315704366977
H          10.06210964707835   12.88708197107146    0.57027509329122
H           6.99191850245723   13.85650110347452    5.97663187083729
H           7.83525098825830   15.71288979293808    7.33993988926956
H          11.21535639896068   16.93157281473585    3.13624740711554
H          12.02055415738270   18.78040786321124    4.56087619905204
H          11.06876280061312   19.12513499874335    6.80454132119326
H           9.30375394229283   17.63371675259865    7.65166253259914
