105
 SCF done       -202.780438952896          0.000945778549
C           8.51710130318485    2.75335747253689    1.24281654230999
C           8.17625498195705    4.14212298322251    0.81391317258686
O           7.23645653602714    4.45468098900717    0.11497649397949
C           9.18427345015536    5.00127678315136    1.45401198596859
C          10.13385937553397    4.20402332154802    2.09625944909166
C           9.82936960115901    2.79778349541364    1.85523999422759
C          10.71447559210348    1.76007124496659    1.95551583672250
C          10.43751845079418    0.46231210121011    1.48297367216174
N          10.25070231724746   -0.59633449661969    1.07947869202116
C          12.02359068307272    1.87552478272822    2.46676386986024
N          13.09668231840956    1.90904785322800    2.87240178900935
C          11.18902530420170    4.78718877264354    2.80949758207796
C          11.27744367605715    6.15407827117229    2.85422179026887
C          10.34431188723546    6.98910812917360    2.20051452279329
C           9.26011997332528    6.40798633492279    1.48081711672999
C           8.32712498672555    7.24510405591774    0.83619691062551
C           8.46568811253335    8.60445496231867    0.89793173714539
C           9.53389541252784    9.18233876249345    1.60226559373537
C          10.45219435089171    8.39403190429619    2.24001057190539
C           7.59928136626185    1.76910963482041    1.08088240505832
C           7.55170148587766    0.48703524652688    1.69129696314516
C           6.93611885795022   -0.65287142829014    1.26495138120133
C           7.16463261858133   -1.72002023254124    2.23471071107074
N           7.87628275792546   -1.20233142460157    3.27030615348575
C           8.14959785409695    0.14063174468965    3.02064308511343
O           8.72756647434857    0.86424075302406    3.79590084414410
C           8.35341622785415   -1.90139904558403    4.43198817010468
C           6.64464733662093   -2.87342041614745    1.75049014119128
C           6.02279652774140   -2.52672441638860    0.43465678035684
O           5.37991306850461   -3.22124665285585   -0.30651753219708
N           6.25967090461105   -1.15918859567093    0.21073833159214
C           5.84029640651527   -0.46781690762483   -0.97795490117609
C           6.59248253927823   -4.22673920613977    2.26500804517434
C           6.90498084655982   -5.31385875022998    1.46717430270155
F           7.37139669139328   -5.11591708385356    0.22942504953362
C           6.81361199692594   -6.64675413505001    1.91366821591981
F           7.12852869859615   -7.61044578359156    1.03870559513749
C           6.36186907163573   -6.99228396845548    3.17457754230468
C           6.00928203227433   -5.90401743896085    3.99841814193872
C           6.15086513577998   -4.55027039705700    3.56496796797278
N           5.76416487636508   -3.76596321474869    4.58336221485213
N           5.43207101804073   -4.60221782481897    5.52945977412739
N           5.54927049255865   -5.87146658052735    5.25765028193814
C           4.96199265904418   -4.15571106782926    6.80469884950902
C           6.34972339706723   -8.36979436720380    3.62348192231792
C           5.42584197359850   -9.12730016386873    4.26105352567155
C           5.96806976037015  -10.46762459476197    4.46234611405960
N           7.22938368018097  -10.50454268452580    3.98140653358125
C           7.55547730942461   -9.23982745156086    3.45826688564475
O           8.63997028641523   -8.95716392222874    3.02541008699464
C           8.15176899652895  -11.60704359314119    4.01339416295036
C           5.04733462415387  -11.23639127806438    5.11308443112153
C           3.84244795045276  -10.36142279670734    5.27205524606982
O           2.75588384565923  -10.64857448788464    5.71462678197809
N           4.15343887694716   -9.11238855929075    4.73814972917612
C           3.23263027576706   -8.00911984561126    4.72237265497537
C           5.12719863296847  -12.60279715325914    5.49274779224168
C           4.41660426179096  -13.26414969799222    6.43892647051551
C           4.36400762765199  -14.75569384736499    6.40071637129318
O           5.09737899283768  -15.47295252026806    5.75551330689405
C           3.22666151319687  -15.12073709865052    7.26013590519548
C           2.73194917683128  -13.97533942509430    7.88716654141697
C           3.55022174849644  -12.82711539117726    7.51394553341731
C           3.65027539192881  -11.65360958625512    8.20909376485792
C           4.62100576965591  -10.67133176271305    7.93135133173704
N           5.41831755812666   -9.86389282834803    7.75344232880639
C           2.85131880547743  -11.31456465370429    9.32003781599149
N           2.23514551216062  -10.98360418292331   10.22988294823917
C           1.62239793723606  -14.05104532307197    8.73854893489230
C           1.03629582771805  -15.27198298566247    8.94844922533947
C           1.52006286111643  -16.45200170565468    8.34103750500456
C           2.64528692365193  -16.38698950790162    7.46862513821377
C           3.12114242692452  -17.56618866800950    6.86039153451376
C           2.50790428915764  -18.76331260999041    7.10871277120937
C           1.40004282164149  -18.83357078908072    7.96824493811435
C           0.91615296175213  -17.70478297732303    8.57085992187144
H          11.91042776478112    4.17416448100739    3.32447777148049
H          12.08286320382486    6.62058749753168    3.40302203876055
H           7.51056115776849    6.79020235568559    0.29814609151403
H           7.75126297120229    9.24517191695616    0.40294913100033
H           9.62455947780128   10.25795636759905    1.63706341471717
H          11.27504188759821    8.83643981577230    2.78271431247549
H           6.75751239785114    2.03088600091624    0.44635567948941
H           9.08065304237187   -2.66300871239632    4.14394749919898
H           7.51568274534209   -2.37336320354522    4.94649028612558
H           8.83181748274887   -1.16889412278314    5.08071956498422
H           5.04471779245065    0.24592755719715   -0.75469367190482
H           5.46409705199324   -1.21630215003305   -1.67465189141371
H           6.68527196515325    0.05909165340250   -1.42319441431921
H           4.02893736278201   -3.60381369170006    6.68591756769701
H           5.70103193373757   -3.49799016234341    7.26247113134778
H           4.80381369937005   -5.03190561803058    7.42905166366662
H           8.21000257135252  -12.02034695050146    5.02111408558347
H           9.12712257918482  -11.22453975469738    3.71377616498617
H           7.84607463710500  -12.39001874111245    3.31663052785449
H           2.31217099626005   -8.34544608791381    5.19775768303217
H           3.02385747436752   -7.70027060633258    3.69619597792463
H           3.65657302226157   -7.16981672822842    5.27493419849704
H           5.79383785664473  -13.22552058036363    4.90356646154838
H           1.22711898354002  -13.16452434197195    9.20703518877132
H           0.17513674342388  -15.34805013103543    9.59659468161981
H           3.97226739093714  -17.50018363249842    6.20122583120926
H           2.87303815870712  -19.66636644049747    6.64280258230429
H           0.93084585698461  -19.78923471684936    8.14967449541544
H           0.06382351719911  -17.75654534520257    9.23278195423517
