97
 SCF done       -183.732824355852          0.000883418183
C           5.73998629904324    2.37537251721524    0.60257399530537
C           5.76796911174792    3.20183080344309   -0.64230417821080
O           6.31939483383647    2.89998306572767   -1.67786079928017
C           4.95687011481660    4.38888283437281   -0.33016595504565
C           4.60488181069068    4.36946448319458    1.02137426043998
C           5.21457707181526    3.21124045791730    1.66345507912169
C           5.46176454429588    3.07419875289114    3.00149508313303
C           6.24561271499591    2.03163398419554    3.53236953546493
N           6.89614877656052    1.20229877140344    3.98878770911953
C           5.02853066742460    3.98369132430537    3.98826010504476
N           4.70266786168383    4.68409908481731    4.83670663434349
C           3.79496938827798    5.37522827574821    1.56341649144258
C           3.36057049358524    6.38307063332835    0.74242389270791
C           3.71270708463752    6.44301777090063   -0.62435995767032
C           4.53248205939430    5.42237415358990   -1.18860494192141
C           4.87859829688222    5.48509421294018   -2.55353509206125
C           4.43200371956122    6.51975642507443   -3.32887888718242
C           3.62380346053410    7.52741559750307   -2.77880651462111
C           3.27113175058526    7.49086615677578   -1.45736910164478
C           6.08610761501734    1.06677111778957    0.53835721089259
C           5.80652047493697    0.03538169151693    1.47570013954429
C           6.42883460899427   -1.16182293804149    1.67162829287512
C           5.75700134407516   -1.89625253231806    2.74801426152406
N           4.71493352345989   -1.15317252563562    3.17320582083476
C           4.65685765556473    0.03677705949213    2.43289342361029
O           3.77333305062998    0.84764394334371    2.54942079218993
C           3.79460853557587   -1.41931451921583    4.24819526223323
C           6.42337390500484   -3.07083773641463    2.95171352885257
C           7.56120950768731   -3.07648191730417    1.99370889880292
O           8.41848439686849   -3.89962264540011    1.80994397936784
N           7.48782509726868   -1.88030258911696    1.25008249546957
C           8.42728871330927   -1.53617126998444    0.21757564012124
C           6.13320127729110   -4.17782449782182    3.83236823814019
N           7.05457620842914   -5.12092324461381    3.99252726326602
C           6.70526229266806   -6.15365504492478    4.75807770154728
N           5.54151893592338   -6.23679890696942    5.41152026154193
C           4.71026336412023   -5.24173233672988    5.20512668639604
N           4.92411714985072   -4.20842462678935    4.41218219629898
C           7.61068622199335   -7.26737286370116    4.89900476287591
C           8.95457592807679   -7.37965341741840    4.70197263509673
C           9.35472881133180   -8.75924677633821    4.99230599949041
N           8.26289520390775   -9.46702055431555    5.33448660531633
C           7.12739289293808   -8.62074892365195    5.29441063036333
O           6.01906684575257   -9.01853250340736    5.52191482705595
C           8.18532140082140  -10.86909731543190    5.64101349576013
C          10.69393503195622   -8.89933681349624    4.77305464530062
C          11.17175292429982   -7.53425488727085    4.38977803585230
O          12.29903810572764   -7.16306346970722    4.17966248967278
N          10.05869880417733   -6.68077209779081    4.37371424063865
C          10.16104445129754   -5.27821252578728    4.07221407387717
C          11.52255705410734  -10.04008896990993    4.94868752943377
C          12.72899802635491  -10.30425186504730    4.38976023195379
C          13.61036736583478  -11.34042372414548    5.00438513533069
O          13.26781126429250  -12.16403426825237    5.82504591656393
C          14.94442833548916  -11.09568215896848    4.43352148750568
C          14.85627693099532  -10.10569806700176    3.45255545553462
C          13.46287754157012   -9.70614484874218    3.29345256315388
C          12.91775979995827   -9.11051703400694    2.18959700151975
C          11.52640843986138   -8.98608226410317    2.00606722502414
N          10.39484911135044   -8.91441141222277    1.82497905919916
C          13.66251055464426   -8.64121381779015    1.08868670701982
N          14.22043847932343   -8.24183755604073    0.16876648858462
C          16.00153204473754   -9.66556452361766    2.77719162214650
C          17.20906422554881  -10.23234304502833    3.09181225057003
C          17.33088018351894  -11.24876651465846    4.06527484785940
C          16.17362722801520  -11.69953977116967    4.76453831468717
C          16.30069055188607  -12.71124570540718    5.73774892825284
C          17.52568142492178  -13.25781950530988    6.00513617864738
C          18.66887364325883  -12.81880661942915    5.31844293383032
C          18.57518577448987  -11.83645347371248    4.37097306803473
H           3.50480697170437    5.34819495281888    2.60109154434086
H           2.72800465026233    7.16308682088099    1.14100377808620
H           5.49885025680048    4.70486537212542   -2.96561288841615
H           4.69906468541741    6.56836614858830   -4.37394767503505
H           3.28110607435856    8.33414339164888   -3.40967673941523
H           2.64955934273758    8.26545263712578   -1.03202916918418
H           6.57898339723838    0.76545735709545   -0.38085641367125
H           3.76653037381415   -2.49329490929617    4.42572954233606
H           2.81361090082167   -1.03846808502436    3.96582791960970
H           4.12325613661660   -0.90565280165301    5.15454796223824
H           9.22333174526143   -2.27984500109589    0.24106192934943
H           8.84170433263652   -0.54411487167962    0.40116068086073
H           7.95026045239912   -1.55383902003869   -0.76405142793516
H           3.75999431707869   -5.27470972145595    5.72439309305039
H           8.68588709463720  -11.45238913983402    4.86719233173569
H           7.12917528573183  -11.13483843396954    5.68038744103803
H           8.64351722850975  -11.08182250350869    6.60887403611483
H          11.16561051952542   -5.09754580156355    3.69290462367592
H          10.00155167145010   -4.68377065465240    4.97377393738190
H           9.41757645020250   -5.00157532097353    3.32544921109057
H          11.18756520770587  -10.76851281542285    5.68097189502264
H          15.93686779907853   -8.88601085490855    2.03568315479660
H          18.10429367214754   -9.90061405092662    2.58580291819319
H          15.41571593012029  -13.04006105395468    6.25925856048654
H          17.62216966911556  -14.03401509754736    6.74956737564471
H          19.62622482079172  -13.26398185508785    5.54581148860241
H          19.45364869668170  -11.49705318139363    3.84138605151506
