104
 SCF done       -193.040372597538          0.000494796937
C           1.09737569928776   -0.24055828051257   -0.40478155432083
N           2.51322323673654   -0.28400000604218   -0.15772502975078
C           3.34642144227265    0.84430605648853   -0.22609562702808
O           2.94402987696000    1.95108801564215   -0.47823021423856
C           4.74076597618251    0.39008739738375    0.06121880229810
C           5.85282944060839    1.31552313131930    0.03640910606764
C           5.73060265303757    2.57823181269505    0.58630586773788
C           6.80118249684316    3.46861565486716    0.61751339577589
C           8.03737499638663    3.13830411576981    0.09192866921868
C           9.14445332272616    4.06329085376574    0.18933888304158
C          10.46553122250466    3.89676253441736    0.45660709417120
C          11.11908870250181    5.20137577576362    0.44578298983340
C          12.40822745114704    5.07273960916661    0.86922085002855
C          13.41071872421236    6.06138909009317    1.06334166209005
C          14.46377736108165    6.01799835437146    1.91563274961703
C          15.61044177290946    6.95374755983164    1.72236234941003
O          15.60574294220886    7.94366413649417    1.02335735237072
C          16.70986072390262    6.38108737818256    2.51613741567803
C          16.23777227290593    5.28495503969861    3.24099784536220
C          17.10289832451898    4.53665004149358    4.04924425544948
C          18.41976494154144    4.90852372290649    4.12358506626307
C          18.92534990953114    6.02502777298433    3.42131094415120
C          20.27789190332443    6.40998917119833    3.51808037161426
C          20.74557896906239    7.49462315867731    2.82796039922931
C          19.88532973861196    8.24289969023512    2.00863896256114
C          18.56685319252784    7.89984613011000    1.88714985359959
C          18.05647047817227    6.78889185670284    2.58869168077284
C          14.80565531213315    5.13428231523040    3.01187716365515
C          13.93013417574908    4.48124356797930    3.83528187038500
C          12.53094503667462    4.56513281975714    3.70033112792853
N          11.38598944980293    4.63564121385565    3.63967562622746
C          14.31056814946614    3.70416405990203    4.94867600937461
N          14.55303998501360    3.05759265376684    5.86535416593998
C          12.59930524404244    3.60714431726520    1.10526199146124
O          13.60619725151231    3.02517472523480    1.43489541234944
N          11.38968766169789    2.97274742767423    0.84090052431548
C          11.18542510682816    1.57574317901325    1.10646491352128
N          10.20060491089420    6.14862670640442    0.14809456664281
C          10.40480446561731    7.56924321040107    0.06707269976854
C           8.94706069558181    5.53452832097714    0.00674459891489
O           7.93280666861978    6.14307870533626   -0.21972370660053
C           8.16077154353683    1.90217630216405   -0.60385806214608
N           9.27966220349347    1.63710237963336   -1.30559276644272
C           9.31554532651252    0.53668352817486   -2.01201951636932
C           8.24518057552329   -0.37412276996519   -2.01851119801473
N           7.15690101694033   -0.15743489852328   -1.32783034436107
C           7.07021388575005    0.98630513561785   -0.62361078335340
C           4.65520711271323   -0.94446154007514    0.29611590307799
C           3.26145377344909   -1.35902635880134    0.17923658786703
C           3.15686681439777   -2.69525364741758    0.43503075902692
C           2.00154902637255   -3.51948575977077    0.48904959668558
C           1.92700455924017   -4.87104339429805    0.41042185189652
C           0.71163020374754   -5.56769778898763    0.92525676160416
O          -0.35216936217128   -5.04410582396716    1.17686930941329
C           1.12041204282851   -6.97129827915829    1.09553801164371
C           2.40517907834629   -7.14758671540604    0.57775821322953
C           3.03648048669849   -8.39607943193236    0.64346606530893
C           2.36752460827921   -9.44157675981049    1.22451309656141
C           1.06436590870597   -9.29960802409082    1.75102298118671
C           0.38318822495441  -10.38195673753512    2.34394465208122
C          -0.87574254539983  -10.21902089839543    2.85388348103163
C          -1.51215044878284   -8.96897457199960    2.79468432359992
C          -0.88462117894214   -7.89499857625784    2.22581475460463
C           0.41246735256526   -8.03353411208735    1.69181788764853
C           2.87419877546025   -5.89004482117964    0.00794307770937
C           3.86821546984139   -5.74702455638985   -0.92002875644739
C           4.11902168383855   -4.53372730987096   -1.59137012978685
N           4.32367887637109   -3.56775828250086   -2.17731376339023
C           4.70436268478795   -6.79242482150035   -1.36120161233481
N           5.41453136439518   -7.60143688604437   -1.75917312124232
C           4.53960714778343   -3.13268008774613    0.80461792388577
O           4.90443878222195   -4.21141742431048    1.20998280849491
N           5.37864098428261   -2.02774817516761    0.69221521464452
C           6.77241577518838   -2.08197048082660    1.03562445452910
H           0.86603765140485    0.74660567791378   -0.80397781015475
H           0.53494656965254   -0.39285628026707    0.51884772071684
H           0.81853696169066   -1.00663152105169   -1.12906329689422
H           4.79067341540424    2.87168979183535    1.02636610630713
H           6.67003382782487    4.43090156890248    1.08597920195779
H          13.37278172999219    6.93189423568443    0.41567040395828
H          16.74400333750716    3.67572683767415    4.58926682822229
H          19.10329512327463    4.33874361563385    4.73648292019152
H          20.93787895281273    5.83272342672516    4.14937288764150
H          21.78317987870489    7.78306143798404    2.90885641297335
H          20.27520668070381    9.09545165547647    1.47286218242681
H          17.89694030258324    8.46677185492440    1.26017793856983
H          12.12940868454725    1.17495830154384    1.47449321226559
H          10.89360856108352    1.05676752251169    0.19461444810933
H          10.41073119262749    1.44564188323247    1.86452927941390
H          10.90155764158706    7.93073922195026    0.96887419355050
H           9.42409999423093    8.03502130711426   -0.02548458787414
H          11.00787729544911    7.82606251244705   -0.80583005243714
H          10.21290194408941    0.36121426254111   -2.59029233779738
H           8.27903046482989   -1.28814070232566   -2.59567002831169
H           1.06208770397213   -3.01948158462151    0.70420753794479
H           4.03491015030232   -8.52801917865175    0.25942828458075
H           2.84162646835989  -10.41032394629388    1.29040466175878
H           0.87489776443467  -11.34301230666399    2.38852731753246
H          -1.38958022676914  -11.05346008379659    3.30784884315145
H          -2.50544312410578   -8.86195948315307    3.20443645831331
H          -1.36338290217964   -6.92982580077471    2.17539672743227
H           6.96759512658535   -3.07435104610653    1.44126238222437
H           7.00952598513269   -1.32303987733656    1.78332854010486
H           7.38403920590494   -1.92020471135922    0.14858485741396
