72
 SCF done       -163.252201205326          0.000296776655
N          23.47895896680548   -1.95913801011306   -4.61006055589512
C          22.34258313632451   -1.96075350125220   -4.76811473517646
C          20.94555798498482   -1.98694722512703   -4.96429817619777
C          20.44403805896401   -3.29527254741374   -5.10695354037875
N          20.10136112929071   -4.38612505587178   -5.21646569914066
C          20.21328213883912   -0.82934224532612   -5.00579257080756
C          18.78200391438352   -0.66191289330945   -5.20003688432830
C          17.88395011628414   -1.68413699573765   -5.35657604860060
C          16.49289072785405   -1.66054309195475   -5.55066145082433
C          15.75680959229721   -2.83954265058815   -5.68105734024940
C          14.40850961839867   -2.60060618184903   -5.86854675176726
S          13.02060606140966   -3.63512958923428   -6.08811213576586
C          12.00786809506035   -2.22709060533812   -6.20521548585472
C          10.63305004546049   -2.04908326421883   -6.39939595864950
C          10.29053591864520   -0.71876315496323   -6.42574395114722
C           8.96579810525895   -0.14942320352249   -6.53585455824941
C           8.60745061038924    1.00836151243629   -5.90149284011741
S           6.94615795031633    1.37130924684049   -6.06437695951551
C           6.66927163586904   -0.07034708921279   -7.00752810037699
C           5.34103231810003   -0.32189830284733   -7.46421074495102
C           4.33420643531036    0.62681427238214   -7.47390803171106
C           3.12199761446724    0.09777859133059   -7.90543807620155
S           1.53178028700697    0.76753237991184   -8.13585286918603
C           0.95597963407260   -0.79533178378600   -8.64463090994411
C          -0.27881366263190   -1.27183708660741   -9.07301558156247
C          -0.24880388438039   -2.62794041055952   -9.34369936508707
C          -1.32415818307173   -3.39520287010462   -9.85352169068250
C          -1.49130755990177   -4.74482923677776   -9.84863825080113
C          -2.41233859957935   -5.37113239935482  -10.84713003785071
O          -3.22876001047006   -4.80212566111010  -11.53072709546311
C          -2.04407428199119   -6.79340157705828  -10.83297438965844
C          -1.07799509559763   -7.03407903879375   -9.80017207562403
C          -0.68464332901813   -8.33187833521263   -9.72191525947525
S          -1.47748349873473   -9.29515402789769  -10.91620032596344
C          -2.36949775165012   -7.92046036676883  -11.52598316593638
Cl         -3.46561140556502   -8.08079938977131  -12.80780540642171
C          -0.83601032035612   -5.79302627060466   -9.08902123382405
C          -0.33390762894495   -5.70823041769403   -7.81756127691744
C           0.18738988233931   -6.83801175737621   -7.15575226802761
N           0.62224156984073   -7.75087219450084   -6.61360782563456
C          -0.38506797586707   -4.54015892142737   -7.03142551351770
N          -0.46518202444237   -3.61946672083651   -6.35062511256756
S           1.36113246533479   -3.30523791530910   -9.11990250702371
C           1.96130552639076   -1.77346513580962   -8.62766542467079
C           3.19584710153277   -1.26819780015514   -8.20972118085981
S           4.78465016113571   -1.89851765647877   -7.98655978357582
C           7.85244615903998   -0.76170075811974   -7.20105398920339
C           7.95358768821648   -1.92696423732553   -8.09988045243664
O           7.10809225275859   -2.77976971190018   -8.18948948716597
O           9.04623722385434   -1.97807429362581   -8.87921154863716
S          11.67189592261703    0.33702557688023   -6.19674572791667
C          12.71854041412307   -1.02932132222181   -6.07965293037453
C          14.08932853992147   -1.22984825528159   -5.88645992868503
S          15.47207366480962   -0.23096176094331   -5.66479420235856
C          18.45084687029682    0.77590539875358   -5.19064324461748
O          17.35214582974945    1.27816345308682   -5.33320802731813
C          19.72439961751620    1.46514721990699   -4.97265673056878
C          20.77723195780458    0.49994460396133   -4.86176125671429
C          21.99820732189049    1.06226665263546   -4.65643591889427
S          21.89048044300819    2.78435043681198   -4.59375989664173
C          20.16129186238529    2.74976240209951   -4.85007748415038
Cl         19.25029055061221    4.17614327524136   -4.91947219915735
H          18.28649362107866   -2.68995044387455   -5.32861110979460
H          16.20747487671668   -3.81448696916876   -5.63772994590656
H           9.92911627748389   -2.85572632442416   -6.49220910632901
H           9.24215258626893    1.64830036159465   -5.32127655686102
H           4.48396552830917    1.65184248342210   -7.18685731445733
H          -1.16978348928995   -0.67686407314690   -9.15393525180206
H          -2.08037611808761   -2.83653073392115  -10.39731447025279
H           0.02142661735397   -8.78899189436479   -9.05746980034838
H           9.65796434618443   -1.24521587798484   -8.72327751529202
H          22.95402784803722    0.59220137101831   -4.53665675875853
