139
 SCF done       -254.683205251298          0.000297889314
C          14.19599736962425  -10.08043518916209    0.25194444385138
C          15.18736283947328  -10.93231876530179   -0.12301192378459
S          16.70768937004435  -10.45298173660264    0.54156796278979
C          15.99221389928196   -9.07270720129808    1.34310036705202
Cl         16.92713181037042   -8.01484965354659    2.28037886155768
C          14.65575776812143   -9.01581762520622    1.09157661086362
C          13.52693062656733   -8.14806909243049    1.45012732390106
O          13.56022129026686   -7.15424982000250    2.14515324005434
C          12.35127527634838   -8.74955243081053    0.78221015734241
C          12.76804039556600   -9.92932851023420    0.04325917249420
C          12.01112361687581  -10.77783538827466   -0.72431538290065
C          12.59029121676879  -11.88888403356840   -1.37148645443936
N          13.04124420080790  -12.79962868946442   -1.90488093905493
C          10.62911277946431  -10.67609961981178   -0.97274136998787
N           9.50806667449471  -10.65936578914695   -1.22458214852110
C          11.06260341465295   -8.29035825761096    0.84560780928721
C          10.50450725791254   -7.18614599458130    1.51643471619627
C           9.14700400254713   -6.91296381555965    1.45000565591895
C           8.75208088030340   -5.78423470812934    2.18041281849757
C           9.85705827301736   -5.19221402086621    2.85425808927979
S          11.35115833705409   -6.02271433957164    2.51832586422682
C           9.72529777004584   -4.07188198445835    3.65986031866644
C          10.88614863174264   -3.42893605375837    4.29038632764382
C          11.10529505701894   -2.06315019233611    4.13158637914920
C          12.20245001894344   -1.45643091509074    4.71163489819175
C          13.10761646048368   -2.19051329085536    5.46761996292719
C          12.88600618432551   -3.55400017367547    5.62340409401856
C          11.79473959574087   -4.16852877739195    5.04215139352913
C          14.30914332884116   -1.53894613368322    6.08047784373274
C           8.42538323080714   -3.56577613145235    3.83077432839643
C           7.32152093776841   -4.16049512321639    3.16139055651576
C           7.45179294052889   -5.24510114520948    2.31374507948972
C           6.31493176232836   -5.80584489817723    1.57665834020917
C           5.12744490442524   -6.12397082508502    2.22911056943968
C           4.06114190584658   -6.65151007126102    1.52680915968529
C           4.14347986928636   -6.86829828662852    0.15753351813792
C           5.32793667841665   -6.53993483545703   -0.49387253966595
C           6.39992915506683   -6.01941581563864    0.20166092039843
C           2.98630997133698   -7.42430281315781   -0.61256242420901
S           5.83645501101798   -3.31155112152664    3.51748033689857
C           6.68207754677544   -2.22756315153008    4.60412145001949
C           8.02411339364467   -2.48477594795325    4.64880284213253
C           5.92519955208251   -1.23427646485316    5.32086498334519
C           6.39847609120929   -0.51673860968805    6.41706634663886
O           7.67244234108810   -0.76949092426056    6.79726852194363
C           8.07841207219990   -0.68951499647780    8.15157889470406
C           5.59851227436285    0.48932106439838    7.07753600820680
O           6.28278654690425    1.22112766286613    7.99993850696168
C           5.98248112623915    2.58864424821598    8.18786478502378
C           4.26984525197796    0.70657224159363    6.75342471933990
C           3.77648412944596   -0.00732035609092    5.63514958083998
C           4.59355183348789   -0.95121349263729    4.92467495821581
N           3.85624261076903   -1.45299409241435    3.95646751620358
O           2.66221077890433   -0.86888794937317    4.05418739928206
N           2.59144986289684    0.00205035429513    5.06068496998297
C           3.35527655725216    1.54983511310874    7.49833396519001
C           3.17289230768533    1.55496032788225    8.84808705010024
C           2.17194180135781    2.46248406964874    9.28137552557538
C           1.60886006657954    3.17278730021949    8.18856600725696
S           2.28854557263829    2.65616834133684    6.66693117097198
C           0.63942137715799    4.14460331609805    8.34710625125839
C           0.12209892211942    4.98644384578622    7.26159092243778
C          -1.24579842392599    5.14361222675677    7.05477216552832
C          -1.71351040109190    6.07339518540297    6.14704930943229
C          -0.83439961750353    6.87504751250449    5.42758910937940
C           0.53049944825547    6.68056370900606    5.60372844336529
C           1.00669512539982    5.74767098935137    6.50323840646949
C          -1.34411858080909    7.95288547500837    4.52598661092414
C           0.24295348991150    4.41943196429417    9.66988401653303
C           0.83762097266375    3.74397958041847   10.76691723005568
C           1.78174628058039    2.74327568450160   10.60156987388278
C           2.35035088690386    2.01285872885390   11.74355041753399
C           2.31130984316488    0.62165254825971   11.77841770773871
C           2.82688710267587   -0.06621398413973   12.85965503405660
C           3.39875565928972    0.61064265085059   13.93028935478334
C           3.43836778191832    1.99933356684577   13.88954357464119
C           2.91937868976899    2.69467833401195   12.81488751125571
C           3.93441788411690   -0.13598989076883   15.11260756005381
S           0.23527106719789    4.35855898337732   12.28200603195184
C          -0.74923859471041    5.55424390902192   11.44831839698553
C          -0.65425804735781    5.41859451921446   10.08590861151340
C          -1.53113477035723    6.46893534209642   12.18761158040273
C          -2.16616106458775    7.60000770878704   11.76369435144970
C          -3.25432200906833    8.14820931912626   12.63214013150479
O          -3.47760187930368    7.84953276839789   13.78067296969164
C          -3.99453078034399    9.06727519356411   11.75777127647140
C          -5.11851595326815    9.83269660554442   11.82895269694332
S          -5.38353476766349   10.67452294471886   10.31893742351262
C          -3.96264719436365    9.98925755398480    9.61581159925524
C          -3.33315340028901    9.16006808847070   10.48944972178128
C          -2.11971626348166    8.36212438513044   10.53027114227108
C          -1.08090760057793    8.51904097008462    9.64645876914056
C          -1.21716371466409    9.28378333267848    8.47185717466775
N          -1.32381803101684    9.86562931262272    7.48776387562653
C           0.21418192318603    7.99691053194172    9.82327157019007
N           1.29581093696750    7.63218793542074    9.94513769848017
Cl         -6.17715037947383   10.01957539665529   13.13834222848603
H          15.13890155151652  -11.80712773062709   -0.74022613166975
H          10.32325939815320   -8.86114526808554    0.29519241135345
H           8.46403642638664   -7.53437038434153    0.89732241976339
H          10.42313626147144   -1.48109334595377    3.52891720329667
H          12.36047304857937   -0.39624253647325    4.57164315050699
H          13.57979156066046   -4.14166831298340    6.20718237753570
H          11.63421069090101   -5.22632571552580    5.18596932318035
H          14.17100740911403   -0.46349084666066    6.16298561392278
H          15.18692855579485   -1.72221042362302    5.46009949078559
H          14.50931797227879   -1.94742018350021    7.06897206010666
H           5.04982472466183   -5.97954348840494    3.29614997843880
H           3.15058295348931   -6.90037051458678    2.05249194964391
H           5.40779414164795   -6.69472472920315   -1.56038681777983
H           7.30382166421671   -5.74812181624381   -0.32451707589329
H           2.52430652773498   -6.63844389620664   -1.21048622749385
H           2.23262603348576   -7.83281851659612    0.05572973157291
H           3.31801571601017   -8.20727103276581   -1.29197536140032
H           8.71268056607066   -1.91983899751122    5.24567509622603
H           7.26912892019274   -0.95126915573043    8.83383937245931
H           8.45201766262614    0.30565224219366    8.39811990061033
H           8.88767341184545   -1.41481792636101    8.25007677569650
H           5.29591163062642    2.73577925463305    9.02551407891161
H           5.55414276223905    3.03451707726959    7.28847721928447
H           6.93437846564505    3.07071135894585    8.41553476469478
H           3.72386820978885    0.91769641752422    9.51755542642650
H          -1.94225478291140    4.52550695101599    7.60447424345162
H          -2.77860094487066    6.19110951541448    6.00497948116862
H           1.22930021290712    7.28402233144055    5.04318500504530
H           2.06970342829198    5.63412763983521    6.65456478766185
H          -2.31890299951694    7.69621674263492    4.11820729284850
H          -0.65193748714896    8.13908742812909    3.70869461916565
H          -1.44677647756148    8.87511046276258    5.10028665220803
H           1.85214297530976    0.08123546272126   10.96293087766811
H           2.78148116919002   -1.14602408699893   12.87488174614887
H           3.88163254868299    2.54313282848365   14.71120941032243
H           2.97189683123746    3.77307499661545   12.79457664953624
H           4.24891767232937   -1.13831792102381   14.83131254114704
H           3.15930230983199   -0.22716403669312   15.87430923888095
H           4.77754341816821    0.38984041841727   15.55484698922291
H          -1.24002334711733    5.99363568553857    9.39335484916162
H          -1.71219212165382    6.21266488827553   13.22710974835247
H          -3.70149101562123   10.24133144932122    8.60734925015869
