70
 SCF done       -150.091649365083          0.000820341859
C           0.63525065576708    1.23845002073949   -2.53385209629207
C          -0.18091166436618    1.98469563840662   -3.32607101706860
S           0.68499570499905    3.27896109704623   -4.07167384543616
C           2.18132042430878    2.80460799405297   -3.30166833728028
Cl          3.61792998222505    3.66367691440034   -3.56271862308927
C           1.98657140218321    1.70672326735121   -2.51925813304380
C           2.80393545039132    0.85351254848528   -1.64909847559250
O           3.98895411741832    0.97896623126250   -1.42687100889442
C           1.86027955510123   -0.16655057591903   -1.11499824597077
C           0.53745076251506    0.07034036741854   -1.68021361107467
C          -0.61933760407650   -0.64374034428042   -1.50103587311282
C          -1.81890490714877   -0.25792825655717   -2.13701929663367
N          -2.80741124436900    0.03774768958091   -2.63918961978613
C          -0.79449434823915   -1.80354933024445   -0.72059706315314
N          -1.02535055502806   -2.75326123553927   -0.11705570624443
C           2.10790793680201   -1.16850054359528   -0.21435245653008
C           3.28312721718604   -1.58861031275942    0.43758600697101
C           4.60439275220190   -1.17238595615845    0.36371935192312
C           5.42531567359047   -1.91727558302278    1.19785054268514
C           4.76260683782007   -2.91667810918365    1.93257495340723
S           3.08262930489651   -2.93269489043962    1.57381784073665
C           5.59837601196022   -3.65920020854000    2.76632837336975
C           6.91133724417214   -3.24866450543369    2.68309187614686
S           7.11473872738074   -1.91380808538707    1.55151389076681
C           8.06062828867367   -3.77006771984651    3.36964783353944
C           9.33556282136689   -3.31927741299250    3.04827318035598
C          10.48512951078155   -3.79455919654772    3.66065823328465
C          10.43313719448443   -4.76296589561223    4.65367913871615
C           9.14272750050249   -5.23770911485419    5.02663315018906
N           9.06800621686370   -6.15859333035446    5.99749319698242
C           7.89717478407911   -6.60848436481127    6.35814307268043
C           6.72775729835376   -6.13238416979022    5.74081242524438
N           6.76512029095882   -5.23512375783121    4.79157615665644
C           7.95912482473584   -4.75796289834760    4.39728362819630
C          11.59778494444797   -5.29277011279529    5.29938980093747
C          12.91489607334007   -4.97004426761634    5.02864285100831
C          13.79791510361410   -5.68102543482876    5.83506467142120
C          13.16784296283462   -6.54669628899016    6.73997787118356
S          11.44392538349529   -6.48507010353269    6.56843189007784
C          14.05603343668899   -7.23527147833663    7.55980354044013
C          15.37702987344661   -6.94657780533222    7.26453819162722
S          15.51433098925699   -5.74567517984156    5.98337826086430
C          16.50418000357100   -7.44256741982297    7.96073273118405
C          17.80854014951148   -7.48057035421616    7.57363307595204
C          18.87676714031159   -7.57412598693645    8.61524798078488
O          18.72467942067284   -7.84683992056199    9.78179640068769
C          20.10786021286934   -7.20355446764364    7.90337593335021
C          21.41704040312757   -6.98598079191196    8.21063960426924
S          22.32221583110300   -6.56084312233039    6.77617225509688
C          20.92078638688688   -6.69534137305212    5.77524119158336
C          19.82780370723836   -7.03522119659020    6.50661799503527
C          18.42912023677760   -7.34082123374110    6.27087884408204
C          17.90247307522079   -7.69436082669483    5.05640839931982
C          18.65105851002205   -7.58052811691737    3.86828938137608
N          19.24755004607509   -7.47361984396583    2.89379113747585
C          16.63494841085492   -8.28739998306499    4.89348136601710
N          15.63372271533369   -8.82655627052275    4.73615165873284
Cl         22.16725475340042   -7.08726686684942    9.72658929339062
H          -1.22755691091825    1.87245691032261   -3.52698773023479
H           1.24593870489206   -1.76349688399226    0.06598009854151
H           4.93029793200145   -0.36758299788787   -0.26850884411593
H           5.28141894221314   -4.46023839319648    3.40576890279670
H           9.43820008202769   -2.56795916908868    2.27858760826389
H          11.43673261268541   -3.39649683571590    3.34739576536802
H           7.87540390238597   -7.35016515762400    7.14351404050145
H           5.74848537013476   -6.48928139091590    6.02922483209308
H          13.22489402782216   -4.26467849253991    4.28074971426496
H          13.76962463515224   -7.94289108684394    8.31608252443213
H          16.31661405843952   -7.76306720145067    8.98160256377710
H          21.00262870231460   -6.50452682795571    4.72366675422265
