121
 SCF done       -233.363991786796          0.000912496584
C           1.34329111494986    3.17539098800805    0.60418655877315
C           0.46549165119320    4.12694747692144    0.18908951004390
S          -1.16692874812767    3.63236363546045    0.46155892924938
C          -0.65346730118294    2.10940225620623    1.15235038788503
Cl         -1.78040906284829    0.97275840501413    1.71016966033426
C           0.70440726352387    2.02098978695187    1.15537701802849
C           1.71692797558252    1.04390784487915    1.57988814200820
O           1.49761399432801   -0.03165202133192    2.09781953022079
C           3.01869470488275    1.66273498831172    1.22625427312789
C           2.78008440365958    2.98079848786056    0.66057161646739
C           3.68783272402732    3.93167133455945    0.26547469278314
C           3.26297273961543    5.17006162621016   -0.25843482522697
N           2.94198145547501    6.18359310980354   -0.69143454193921
C           5.09171513778022    3.84850928237256    0.33499702962080
N           6.24039432247914    3.87078480875994    0.36484883573051
C           4.27980039699105    1.12423776269505    1.33153641849334
C           4.74419986455990   -0.08659735992467    1.86371988740926
C           4.11754895460553   -1.13678119891416    2.53351594451490
C           4.98186566442778   -2.14095149105372    2.91942932896389
C           6.30802637628586   -1.87907602733426    2.54586108711946
S           6.47849218613998   -0.38935743893153    1.72228230059125
C           7.26183406640762   -2.85270646928597    2.91202331118382
C           6.78312846274333   -3.95810183155181    3.61677977260023
Si          4.91208163589009   -3.79174623521954    3.84116378264335
C           4.37982995944506   -3.57766969253812    5.63878174679551
C           4.75948924285511   -2.45270090861055    6.36690614426615
C           4.36138164779499   -2.29112377319439    7.68096082308326
C           3.57514732710324   -3.25531910581272    8.29005380143039
C           3.19044824286957   -4.37965799793596    7.57889518053252
C           3.59043655054630   -4.53742772690139    6.26437918412343
C           3.93868521362606   -5.12939111860171    2.93895047581148
C           4.56444156149100   -6.23214568609906    2.36504559090843
C           3.82617263311931   -7.21271266202197    1.72692271415931
C           2.44774825155262   -7.10471207990788    1.65238870626576
C           1.81128698023761   -6.01202145496116    2.21825611335420
C           2.55186167872046   -5.03425561961660    2.85613697256456
C           7.79969584510433   -4.84444607009165    3.94134957566862
C           9.04756824928440   -4.44048245946230    3.49041364766846
S           8.95822173477797   -2.91845313941870    2.64222516079783
C          10.28147704507844   -5.13717173814265    3.67945161687203
C          11.50268982890852   -4.72446366832448    3.15742807647573
F          11.56020860013014   -3.60504706907238    2.41230085823869
C          12.70877903446077   -5.40579626696739    3.35494355588029
F          13.80091421579521   -4.87239579830718    2.77639875945803
C          12.83103687834891   -6.56817331759054    4.10897965915335
C          11.60107330514986   -7.01755577687251    4.65576491142156
C          10.36800694559609   -6.33153744259398    4.44098675267751
N           9.41530641399402   -7.02242031375043    5.08272008013127
N          10.04593174018269   -8.02645310407240    5.62534980164109
N          11.33144238395995   -8.08666475358505    5.41731862150285
C           9.35954272485675   -9.01164706466418    6.40288694259890
C          14.06259377258934   -7.25770119215513    4.33317121878144
C          14.25109544099212   -8.36172002117515    5.15138500095123
C          15.56628567652295   -8.80331135429344    5.18585673013835
C          16.39421137869286   -8.03124660130900    4.37086419160577
S          15.55478662852864   -6.76178832807479    3.57540290056588
C          17.75507643838274   -8.40030099413302    4.33067252311082
C          18.14220916388603   -9.45561987905426    5.15737986970316
Si         16.60544302100932  -10.14823900041541    6.01764162969451
C          16.60815670289850   -9.98591545598392    7.89674643357195
C          16.02147905184203   -8.89750472395114    8.53645203792172
C          16.02079717664300   -8.80141958047128    9.91629475955235
C          16.60859148724839   -9.79506996946167   10.68092808151578
C          17.19572792873622  -10.88469083511558   10.05895328700418
C          17.19366324180260  -10.97715401613134    8.67937645845152
C          16.26421696011762  -11.90337407922573    5.41940678650765
C          16.78801531465421  -12.36429265864394    4.21287920500147
C          16.55013948298877  -13.65994618628015    3.79109711254170
C          15.78529026193644  -14.51510685029590    4.56674854904761
C          15.25658575717418  -14.06865177279570    5.76689979714303
C          15.49504253452463  -12.77333485886492    6.18772784806069
C          19.49415546200750   -9.73260485723224    5.04525979413134
C          20.14673592030428   -8.94950034973878    4.10145342053148
S          19.05024046006154   -7.77773431833802    3.39222528543663
C          21.51380653901367   -9.00915821543595    3.75934099249107
C          22.11263944259901   -8.60729498545745    2.60077025654789
C          23.56981574838875   -8.29279668364517    2.59076249484447
O          24.37005266263939   -8.54134973224195    3.46193377978514
C          23.77677459916485   -7.57733945015801    1.32233279026019
C          24.79217669279597   -6.92608835061307    0.69124918047791
S          24.25574323625478   -6.29782508575470   -0.85105560744352
C          22.66612657715388   -6.93649251676211   -0.62805989848187
C          22.56004513818783   -7.58083517462001    0.56273309791273
C          21.55760070199112   -8.33571525079731    1.29174419565001
C          20.44390316144499   -8.89927061811473    0.72072681597543
C          20.07620653164825   -8.61441309195411   -0.60870230911541
N          19.76029918364651   -8.38186246982336   -1.68730915378499
C          19.63476628545261   -9.86569176590361    1.34638230913803
N          18.99100790745133  -10.69805274179059    1.80771494542801
Cl         26.38406591271858   -6.69855681339677    1.22645909078802
H           0.65338820173079    5.08202210147618   -0.25902042302679
H           5.07649350502037    1.73895627386157    0.92825456468331
H           3.06008880979481   -1.14067102044845    2.72013916023186
H           5.36983672816671   -1.69628393287306    5.89420603331476
H           4.66126696721978   -1.41145151849538    8.23165766813828
H           3.26118057484231   -3.12931505400872    9.31583120934156
H           2.57554266457864   -5.13296567726994    8.04977743795540
H           3.28451002032206   -5.41335954726341    5.71046505167248
H           5.63994353428921   -6.32030891761307    2.41975486645798
H           4.32633458857794   -8.06270153087088    1.28555820720321
H           1.87054065607732   -7.86927804744279    1.15336128359488
H           0.73633134311899   -5.92286198513109    2.16064962735579
H           2.05183555006689   -4.18376026362521    3.29577464124171
H           7.66569238137472   -5.75831892720893    4.48905488089063
H           9.80043158088157   -9.06915719251579    7.39813189246815
H           9.44616828853649   -9.98800910199757    5.92480690466538
H           8.31456447554846   -8.71927143347654    6.47011809024155
H          13.43922860854631   -8.80781527407665    5.69458931586428
H          15.55910222810121   -8.12081753298378    7.94441130044967
H          15.56095485678578   -7.95029606969872   10.39745630766053
H          16.60887591275771   -9.72124106024205   11.75853173579823
H          17.65472511563549  -11.66264093934026   10.65157637054897
H          17.64853575711193  -11.83082324963996    8.19816682895925
H          17.39037632426888  -11.70902515616526    3.60146049842313
H          16.96653519490808  -14.00223770181893    2.85542829046489
H          15.60242340031016  -15.52812407156140    4.23896884719667
H          14.66015632171780  -14.73265490007266    6.37612629911128
H          15.08575831537844  -12.42983583166099    7.12729624866619
H          20.00105326637416  -10.50991759107789    5.58873133871203
H          22.18578469434652   -9.35813837032777    4.53776133170677
H          21.92368633085292   -6.78033155812519   -1.38522583585158
