89
 SCF done       -204.412109184195          0.000915778042
C          21.61759332142261   -1.19346421518528   -0.01583726287747
C          22.94576108717155   -0.93586016149674    0.12110056508547
S          23.50623224373948   -1.36485720955029    1.69712234661248
C          21.91724745198162   -1.90242665464889    2.18805554303017
Cl         21.63059891733787   -2.51747626546137    3.73955574316430
C          21.02763330562071   -1.74647759790839    1.16680882061280
C          19.60516834782260   -1.98984986607134    0.93386782487062
O          18.79290234813786   -2.45031909274861    1.71499883601104
C          19.35414418495253   -1.55751723053743   -0.45489044329346
C          20.59428280263372   -1.06952478278497   -1.03757818534406
C          20.81648468854537   -0.57435629933566   -2.29570923420338
C          22.09789468636735   -0.13458814892562   -2.69070204388255
N          23.13268242417101    0.22930460999610   -3.02601977646577
C          19.85764839087381   -0.43931044902841   -3.31902778181633
N          19.12657159452885   -0.30434540091189   -4.19434673636688
C          18.14222360760263   -1.60285197299087   -1.09397072044154
C          16.88403735806479   -2.02777321388698   -0.63691348948904
C          15.74906720601678   -1.97117123378998   -1.45874913132322
C          14.60944858222283   -2.41042220131822   -0.81660920310777
C          14.86867361224475   -2.81522038624898    0.51843647346381
S          16.50454352942944   -2.65428597584584    0.96632225565440
C          13.64878526461020   -3.22261102481413    1.10170781393827
C          12.61850354472527   -3.07677757930082    0.14453839054882
C          13.18982385594467   -2.56917888698671   -1.09160514149511
C          12.52904811712567   -2.29622520857756   -2.25262621733014
C          13.19029093602381   -1.80199507270407   -3.39741118486353
N          13.72171874145514   -1.40041390838982   -4.33015415773949
C          11.13696007827695   -2.48837271099187   -2.38499716304605
N          10.00620923873582   -2.64151713602680   -2.49659921801847
C          11.37184972709188   -3.42772230614633    0.63751242397617
C          11.43631699561382   -3.84067135150118    1.96528510997822
S          13.07288196189713   -3.80510207540682    2.60292394325081
C          10.34583004120240   -4.22149365690578    2.78684917564698
C          10.54542911344812   -4.61161317154774    4.13142508143084
C           9.45224671745631   -4.93571636107381    5.00948968471807
N           9.70406731098246   -5.29249660491925    6.27316929863948
C          10.94035215746147   -5.34617835679908    6.70660243166661
C          12.02814426959088   -5.01804415409165    5.83423705547877
N          11.79943580525658   -4.66546700310899    4.59229955026112
C          13.36391248613075   -5.07025504448209    6.30480444212735
N          14.43226703187231   -5.11929747248277    6.71374785402764
C          11.18649505350799   -5.73250105927777    8.04762764261969
N          11.41397956739721   -6.03785607115832    9.12744291782480
C           8.10241775090594   -4.87762817551219    4.59268656977896
C           7.90035804127136   -4.52942464808330    3.23601495914890
C           8.99909322403580   -4.21175098659540    2.35102157683205
N           8.56442827691976   -3.90909356240478    1.12712490955183
S           6.96690648640963   -4.01230443922228    1.08209124109060
N           6.72783829881427   -4.43965800369448    2.60711350498752
C           7.04589131832657   -5.12681588779899    5.50368366069905
C           5.68166709487895   -5.05050299582983    5.23768029454096
C           4.91982785612210   -5.30359975826206    6.36702861983649
C           5.70627935984297   -5.58657947683342    7.50714510496374
S           7.38377178103259   -5.53534723327125    7.17797097966067
C           4.83898082186239   -5.81008918446934    8.59959496544345
C           3.50518793120586   -5.65763674402169    8.15656654711751
C           3.51489407491852   -5.35173654869221    6.73717553588604
C           2.42982221995631   -5.17670940374425    5.92972623812797
C           2.55251793832753   -4.88847770666202    4.55400008366097
N           2.64948211924428   -4.64370144401014    3.43829811092039
C           1.11673695909836   -5.27192320083967    6.43787871145737
N           0.05749365250139   -5.34759914823154    6.87045281203493
C           2.57334699716410   -5.86215859988680    9.16205780811487
C           3.17165215566032   -6.18280729425821   10.37513914130408
S           4.92856225083450   -6.19139775171272   10.25528496534244
C           2.56913857740046   -6.41880948624096   11.62815822404607
C           1.27415387178942   -6.72556797922794   11.92403649139043
C           0.80730152108303   -6.48775980065755   13.32919627118417
O           1.50798690631782   -6.24639157306954   14.28209821373389
C          -0.65417523468713   -6.56519934137912   13.24648172148812
C          -1.71800916314457   -6.36882218625264   14.07567074271196
S          -3.21804247958045   -6.64752522286881   13.22239466468765
C          -2.38856863926044   -7.03877426844223   11.75964913841072
C          -1.04200651805162   -6.95057628787737   11.92096713341926
C           0.15189078438452   -7.17928295346816   11.12600303291977
C           0.16721241145282   -7.90615480877161    9.96321839937506
C          -1.02627143835450   -8.36507287923509    9.36623583432347
N          -1.98637812173220   -8.74745365848582    8.86907533147266
C           1.33000682379580   -8.34039572158451    9.30289614980340
N           2.25767448485534   -8.72959176492693    8.74903580302405
Cl         -1.70173899491665   -5.91929234791786   15.70838177357095
H          23.63762187961609   -0.52594199068441   -0.58760545356889
H          18.12138534190470   -1.25216946954289   -2.11929648924739
H          15.79390421558681   -1.61385924685231   -2.47257054533930
H          10.44372404790231   -3.39323920067145    0.09731240158070
H           5.30495396484095   -4.81314162062076    4.25970443690211
H           1.51239859940255   -5.73596364478475    9.04718729427768
H           3.20413617194781   -6.27046268716573   12.49701857573234
H          -2.95401332841130   -7.29299969949089   10.88520038149072
