72
 SCF done       -157.693686108399          0.000791507998
C           6.31020384264787    3.91399854770112   -0.70161877055788
C           6.51520824384366    5.25567600409680   -0.78988885382583
S           8.19059402221180    5.61906475498429   -0.99514472792963
C           8.62497922425529    3.92482594972996   -0.96604999147455
Cl         10.23752453363733    3.42706142640540   -1.12420437348572
C           7.51714154269976    3.15116007020890   -0.79965307896437
C           7.21534866782225    1.71701627304966   -0.69081534885197
O           7.99905433870268    0.79945657729859   -0.78573200204112
C           5.73375036958075    1.65362096496670   -0.51615773295304
C           5.19336317264848    3.00448128097947   -0.54225385661305
C           3.88694202154649    3.40527887143195   -0.42019806154494
C           3.53609533107947    4.77112766576758   -0.43936399442604
N           3.22733903059940    5.87644154732445   -0.45147189296217
C           2.76329706686055    2.56840502601029   -0.28144282291825
N           1.79806369689794    1.95230690231663   -0.18176031239122
C           4.96461512906461    0.52645184734232   -0.49079006267092
C           5.36986717313364   -0.83664341667640   -0.35574580461847
C           6.46264083224500   -1.19872288501072    0.40847967623067
C           6.86683549594311   -2.53078304773417    0.55045354468174
C           6.18054889579014   -3.55423897769426   -0.05680603268353
C           4.95751889523412   -3.27999126685621   -0.73585357569677
C           4.03626491275130   -4.22952194434301   -1.12882362362410
Si          3.01202067173961   -3.34514273715631   -2.40261542034145
C           3.33907072800961   -1.72039185664463   -1.55028632281171
C           4.54390442975027   -1.88293769979781   -0.91648730398797
C           6.68821522109534   -4.93185568833340    0.02152626177739
C           7.02632869280601   -5.52460876454634    1.23794150403170
F           6.84103912922023   -4.84521255607113    2.37950746100186
C           7.51723700200521   -6.81916547330725    1.30227457869937
F           7.76968385469005   -7.35374588634483    2.51077529895226
C           7.71495949879695   -7.59000731620114    0.15562718096745
C           7.37377068069420   -6.99872702712323   -1.06140912877762
C           6.87848816207759   -5.70447173157819   -1.12471701623266
F           6.59448546700299   -5.17847143808431   -2.32750915991595
F           7.53638314456148   -7.68231150388014   -2.19997734022201
C           8.20318432786786   -8.97426523353441    0.24253506369402
C           7.49630743185900   -9.98757035774959   -0.35665655234919
C           7.89851996595129  -11.32207357495401   -0.23460351249776
C           9.02107306529766  -11.69504033059692    0.47878973418687
C           9.77236606380767  -10.67494651529463    1.16673649696061
C          10.88352714240837  -10.86870992465521    1.94973726580882
Si         11.15406803769094   -9.23760372459530    2.82159230886468
C          10.29883673066818   -8.34239264086518    1.44137308655376
C           9.39349215707059   -9.27281272779951    0.96772960401237
C           9.39159877276025  -13.07831646865577    0.45997461830534
C          10.61447863324166  -13.67390228386415    0.46768047381409
C          10.68960320781316  -15.13961265241488    0.75692840927933
O           9.76027731546355  -15.90985766962629    0.81324244666209
C          12.11529299908024  -15.39446093234780    1.00150010915059
C          12.89631951672917  -16.44311743559803    1.38136038935387
S          14.57459408735073  -15.95894213770137    1.47041348014514
C          14.19821494548509  -14.34465208302689    0.98132980475617
C          12.86416805170272  -14.19317464105392    0.77110536182137
C          11.95829966892187  -13.15083902325983    0.32484170102478
C          12.35345603067892  -11.96907481831244   -0.25012689412974
C          13.70628845121177  -11.57721463161895   -0.25686678057893
N          14.80005950654264  -11.22930413598556   -0.23173358921336
C          11.51028770575302  -11.09752651048679   -0.96484071515936
N          10.88504252044688  -10.38983086250813   -1.61739446611114
Cl         12.41816665197520  -18.02904566667428    1.73968757887801
H           5.80585649438938    6.05812818952699   -0.75146928947286
H           3.89835058569442    0.67368306946748   -0.60201081015083
H           7.01774005439728   -0.44116606729726    0.93577508511007
H           7.75625866903971   -2.74266301968920    1.12400482247873
H           4.26467801823439   -5.28199001614902   -1.07604267978136
H           2.93899826877477   -0.75357267032062   -1.80391451678609
H           6.60797617059966   -9.76259915883576   -0.92704224380169
H           7.33961964761695  -12.07909912727041   -0.76473233666895
H          11.17354168934350  -11.84918864016282    2.29037033896633
H          10.10080338105801   -7.28544180826353    1.36736820603483
H           8.56280376211138  -13.78141634135632    0.44789147556300
H          14.98740714942243  -13.62515991876447    0.89085763143091
