92
 SCF done       -177.655588571928          0.000653949441
C          -0.87524552508900   -1.68338760969355    6.15331861138481
C          -2.07818418209480   -1.33433350854787    6.68217064055225
S          -2.18069469030162    0.37203963662116    6.92901113747066
C          -0.56544176637122    0.62029651366932    6.30487781891805
Cl          0.11338468749251    2.17091537870582    6.21656617199329
C          -0.00917461166418   -0.56619254116405    5.93717699177688
C           1.26390251601511   -1.02456854741726    5.36561787034055
O           2.20518340824886   -0.32036399091733    5.06230521414565
C           1.12829476246947   -2.49860335611614    5.25739258941158
C          -0.19062175005562   -2.89018213679417    5.72877551272073
C          -0.75811501220363   -4.13895088697610    5.78335039012484
C          -2.06670188462897   -4.32276439847422    6.27648361188167
N          -3.12812455614652   -4.50117307396861    6.67554467330421
C          -0.17962400923250   -5.35783034817011    5.38039566010462
N           0.21200812969203   -6.39344490467454    5.07263386027370
C           2.05672173178953   -3.41519071517728    4.82202257144911
C           3.36121557018597   -3.27545946509574    4.33089672430807
C           4.16745607947387   -2.16562574356115    4.07117823425616
C           5.40917205829091   -2.51580765443674    3.58932576518070
C           5.58494431628817   -3.90557280458533    3.46789145370012
S           4.20479497445536   -4.78542304900227    3.94462931790906
C           6.88723609284189   -4.15737041387632    2.99010305616843
C           7.55083816295906   -2.94268072228969    2.80095644050624
C           6.65642647222239   -1.78038379246139    3.15917628588112
C           6.38265063149501   -0.89040751635416    1.94325878039520
C           7.24153176316692   -0.95722353443353    4.30983781140589
C           8.85264559060973   -3.10267167206551    2.35063677169973
C           9.20406565222250   -4.43336224101792    2.18990379876394
S           7.87136973925764   -5.50588419186192    2.60478081411340
C          10.45423541491380   -4.99954698782699    1.77438054991111
C          10.59127506760269   -6.37697183645878    1.64548501563698
C          11.78494802183585   -6.97767512053520    1.29136430756139
C          12.94299810725205   -6.25094239137175    1.04057798209336
C          12.84473774934944   -4.82658664396504    1.12832426507208
N          13.91842620529133   -4.06476744683975    0.85425264123171
C          13.81072461819014   -2.76533380891432    0.93428878139826
C          12.60317477503982   -2.15607229580040    1.30405139808443
N          11.53896463546216   -2.86488477522898    1.57177980837792
C          11.61033332543114   -4.20549840532832    1.49200545097780
C          14.16621480850000   -6.92603426217944    0.71894125155983
C          15.44375465492984   -6.40785092331839    0.58051789220621
C          16.38881455795411   -7.38219163827535    0.29591054564373
C          15.83936758841954   -8.66300191194436    0.20710558601595
S          14.14904305982930   -8.66964392241266    0.48096721013795
C          16.86533743649603   -9.58807118744738   -0.07511948615802
C          18.08474440849023   -8.89900879919653   -0.16156966981462
C          17.88014518269289   -7.41961242798298    0.06197719784177
C          18.26653206090443   -6.62449480753427   -1.18885568678849
C          18.64843022567465   -6.91661694969238    1.28699177396648
C          19.14560085143363   -9.72458648875687   -0.46718139494250
C          18.76202467969927  -11.05866676950639   -0.61755301687938
S          17.03604912341524  -11.26513351032872   -0.33779082780514
C          19.53623285166520  -12.20029784086017   -0.87243577474437
C          20.82025834423396  -12.31086406450834   -1.33692007679647
C          21.55061617509791  -13.58438030335688   -1.06926548271751
O          21.07569562202261  -14.61311316589726   -0.64811230391643
C          22.95310929067989  -13.27775419905036   -1.38442191210418
C          24.16034890456522  -13.90104704693528   -1.30314419173302
S          25.43459064134590  -12.84944773110792   -1.87886783624434
C          24.31287845698447  -11.58339134802891   -2.23274755094879
C          23.04359471601291  -11.95048562908755   -1.91779759026744
C          21.70600386187342  -11.38783940425369   -2.00524836687602
C          21.38274844437856  -10.30649101867633   -2.78945127359169
C          22.37686936432562   -9.53125531204055   -3.41722361710660
N          23.17381519326185   -8.86821194343349   -3.91041731667333
C          20.07307198854974   -9.90671025520470   -3.10632345242695
N          19.02435340996487   -9.55341088298579   -3.41395864730167
Cl         24.49675247124969  -15.46519086378493   -0.74427006649103
H          -2.91391436064470   -1.95051621003852    6.94713289559193
H           1.73638367790992   -4.44967336776736    4.86872807332272
H           3.82337005845434   -1.16313559226675    4.24572039945366
H           5.96017261853069   -1.47748198916617    1.13091626838041
H           7.30767819503258   -0.43447431172819    1.59964964585665
H           5.67890932398990   -0.10622364625154    2.20968410262169
H           7.44646273255846   -1.59530240725560    5.16649911221853
H           6.53612380537583   -0.18686502117974    4.60986723499554
H           8.16931386681428   -0.48558755492555    3.99626742418656
H           9.54480363002996   -2.30950723862974    2.14269815949375
H           9.73474268501179   -7.00660948020038    1.83777428187185
H          11.81954700079992   -8.05505082813608    1.22033410673606
H          14.69554364271438   -2.18867965678465    0.70048865235806
H          12.50319417668724   -1.08158163820610    1.37931997937492
H          15.64042338638713   -5.35874273129394    0.69069164195917
H          17.75795073407807   -7.02465352220368   -2.06236399352933
H          19.33846684542657   -6.69061130116527   -1.35700314909809
H          17.99135849595678   -5.58011217579584   -1.06643520642139
H          18.37075212668017   -7.48723160276565    2.17056194321014
H          18.42051808593352   -5.86850736542535    1.46288124609880
H          19.71848889109728   -7.02078455099106    1.12580910369115
H          20.17004364552041   -9.40537065658686   -0.53226102786246
H          19.08504025233305  -13.14827226703768   -0.59306561658831
H          24.67497583728609  -10.65984327341947   -2.63869997316911
