71
 SCF done       -166.664449744612          0.000654523729
N           2.41597798055528    3.95541878110805   -0.11252157648649
C           3.34155195578149    3.38475940918404    0.25269268192266
C           4.48359714027773    2.69790803725757    0.71796775023135
C           5.07024289457654    3.30900980757857    1.84423558071672
N           5.49885039537601    3.85467396389820    2.75869006047297
C           4.92522234467478    1.55589383957497    0.10747678823741
C           6.09309931072546    0.74983160273079    0.44153314887409
C           6.97211549567564    0.98249370567827    1.44373821657478
C           8.21767908040648    0.28205210897450    1.61391136267892
C           9.06299954924667   -0.02035083838733    0.53295892616439
N           8.80578580655427    0.33772574441072   -0.75276015788040
C           9.69965998880744   -0.09940834376189   -1.55163809731970
S          11.00911226188897   -0.99079037402280   -0.84190839106917
C          10.28151645161509   -0.72943783230734    0.71309289166674
C          10.72176035217714   -1.15634576123684    1.96876431242225
C          11.92214028086104   -1.90862988959431    2.22820713190159
S          12.01075661206617   -2.93535049847153    3.62356596577984
C          13.59791107102547   -3.49708659636590    3.20818130478785
C          14.24189064236753   -4.49094808124456    4.02579314351142
C          13.85942363656025   -4.61213757109931    5.37417151973747
N          12.91428585301497   -3.83619346584474    5.96890246846720
C          12.74518926367915   -4.14147359441786    7.19426823419251
S          13.73391169939498   -5.44234002772928    7.80820774702564
C          14.44964132217941   -5.56499027472852    6.23357849732453
C          15.39515555473556   -6.49498186980382    5.80163736797163
C          15.95187444019858   -7.45781294087192    6.70718903252133
C          16.39485573562981   -8.71238541631849    6.46132795339494
C          17.27430994569285   -9.37966619299459    7.47782754530758
O          17.46469740147885   -9.01419854889036    8.61154016256513
C          17.85959462513303  -10.51621088427645    6.75794259363955
C          17.27881696305358  -10.61189035819276    5.44960687640474
C          17.77256271742765  -11.64585651758413    4.71810569780595
S          18.96568353420944  -12.52355906742529    5.60482917721074
C          18.78824555251278  -11.48410101626221    6.99919122983432
Cl         19.69618416284442  -11.73495885150326    8.40660549487776
C          16.27508596419291   -9.57687780871139    5.30066749778330
C          15.29370858646985   -9.57558750091360    4.34740266592379
C          15.29980130725707  -10.50171073929036    3.28441700180479
N          15.29974624244532  -11.23204184454427    2.39953069617264
C          14.17940431491120   -8.71612755674886    4.34563026531499
N          13.23756527529642   -8.06005357242992    4.31912665276282
C          15.77329749212724   -6.38395675641799    4.45036960513652
N          16.68720937369630   -7.19143398961676    3.84861689971549
C          16.81798645653324   -6.91606766518784    2.60655307842233
S          15.85468497558123   -5.61368528386202    1.99444858613981
C          15.20873590253717   -5.40098736574235    3.59320395448579
C          14.05206362692853   -2.83721110743241    2.08566825347794
F          15.28845417522383   -2.95201982874658    1.58297153493530
C          13.11548927220160   -1.94817767441606    1.53790564109823
F          13.41639468377797   -1.17330455289313    0.48813338711003
C           9.87874010685536   -0.83471429705364    3.04876424508969
N          10.13133922755853   -1.17603365505305    4.34103633577280
C           9.21729743954490   -0.77248046270611    5.13168798593119
S           7.88970568314845    0.09475448921136    4.40013974161390
C           8.67953316425774   -0.10874170957070    2.86812868389882
C           6.12877124306692   -0.45511953194153   -0.45130079154605
O           6.82417498133877   -1.43574888702928   -0.33529710840497
C           5.03089829695794   -0.24055236979909   -1.40050474084080
C           4.30806691746937    0.94640461986420   -1.05251846859297
C           3.25558534302148    1.19427269997100   -1.87933820399008
S           3.12595013266866   -0.01369732477651   -3.10380741804811
C           4.51364026098462   -0.88009202748283   -2.48611254555174
Cl          5.06726054063885   -2.30138890681278   -3.22219184407357
H           6.75527183510176    1.73635276095645    2.19108402085074
H           9.67411006049109    0.06913980102457   -2.61084601022925
H          12.04444933848394   -3.64700759862360    7.83752405839826
H          16.07320445648607   -7.11600550153881    7.73197797749799
H          17.52924020766705  -11.94908716762644    3.71920385191236
H          17.48537656000039   -7.44961156804539    1.95750491590938
H           9.23265033728235   -0.94006993130664    6.19042813822436
H           2.54645419563727    1.99782762678144   -1.85718118593920
