89
 SCF done       -197.781279224935          0.000565613459
C           7.09382962664315   -2.26574989375845    2.27868342573043
C           5.72980734232748   -2.11939191601261    2.38828947928541
C           5.32350437735617   -0.73850814877761    2.28025989126765
N           4.04942534961185   -0.36665119766503    2.35561257421432
C           3.16097038349338   -1.32205894829575    2.53699869336883
C           1.74140208752787   -0.91117227171380    2.61755594883766
O           1.38707992456517    0.24613499410959    2.52130434980250
C           0.78351051216828   -2.01248155922549    2.82284531191635
C           1.14293768040473   -3.29486616475656    2.93138358016726
C           2.53888756507958   -3.76512014324730    2.85927378069592
O           2.82957889059376   -4.93530314197711    2.96536699598983
C           3.55801055828390   -2.69743123607866    2.64909744364797
N           4.80731031094273   -3.08195837755711    2.57558495231727
C           6.39823991765986    0.13691741370651    2.09108515152609
S           7.87752249409406   -0.75962456106355    2.04949032565632
C           6.27403621647957    1.53239332534377    1.95872822835290
C           7.27357350946662    2.47709778245314    1.76877769425076
C           6.75295204662217    3.76277542702818    1.69236679684254
C           5.34556927612362    3.78677838918972    1.82225783634818
S           4.66399466548420    2.23409786226513    2.03782894358128
C           4.91751939627872    5.12825258221871    1.73874479169927
C           6.04396382893475    5.96288861704572    1.56221644180898
C           7.23072524326801    5.12124590197317    1.49204565063756
C           8.50964166614816    5.51117754622380    1.22781856525970
C           9.57337566553602    4.58407665190239    1.18611428513021
N          10.43620486166867    3.82950536494463    1.15744538614872
C           8.86050380543837    6.84394489429042    0.91738006149179
N           9.16803476034333    7.90613126970107    0.61726872066611
C           5.72364071788242    7.31235418134036    1.51842983912808
C           4.35121639489106    7.51539967536795    1.63684025354726
S           3.45804679411023    6.00809581528632    1.80853570533076
C           3.68121392442997    8.75090182654122    1.63491195872593
C           4.25434874048092   10.03035486260615    1.70072147509439
C           3.27902835232430   11.08756090871669    1.68589337079117
N           3.64784080791717   12.36639807528099    1.78388362690369
C           4.93447898580977   12.61084091361113    1.90375715897827
C           5.34201292968714   14.03279261603025    2.05435374568084
O           4.54278901020161   14.92701806179988    2.21926164614172
C           6.79775485312470   14.26569149239474    2.01120048321173
C           7.70375387926847   13.28311779199983    2.02327882506568
C           7.35205665026603   11.85236251066332    2.08191749438308
O           8.17531317841931   10.98457114960904    2.26995053242332
C           5.90345809486399   11.56031642662685    1.91770918906012
N           5.55742420940253   10.29617018061396    1.81216525584256
C           1.95936481505567   10.61605380732081    1.60386481587537
S           1.95139148951400    8.87985505371180    1.57239207500192
C           0.77911963115398   11.37761760847294    1.56474435442485
C           0.67779751287505   12.76274130823465    1.46872569333289
C          -0.64634451178512   13.17936230273917    1.46052738455545
C          -1.56450333596561   12.11052208594507    1.56442700448364
S          -0.79334680684847   10.58982179711555    1.64165653334172
C          -2.87152149958768   12.63504585140442    1.59488188502704
C          -2.79784715432084   14.04255837617219    1.51577549220621
C          -1.40072978546508   14.42320999320008    1.36614534322409
C          -0.91528447450593   15.66158359812507    1.07516502704506
C           0.45468922414381   15.90727750669947    0.82814174240021
N           1.55181337120707   16.12600008775989    0.58074240377677
C          -1.75715418785788   16.78163964733561    0.88722675814750
N          -2.42080657919662   17.69453948864642    0.68989571748586
C          -4.04281279548058   14.65649070910568    1.58864587034058
C          -5.06835632115940   13.72671608300451    1.70003179194199
S          -4.47809050797721   12.06968001381613    1.71689206928307
C          -6.44703449672357   14.01004931918316    1.79926908432217
C          -7.03188691852816   15.26434683611868    2.01793619969323
C          -8.47627529562464   15.20334888839878    2.05213397645837
N          -9.20690885201804   16.31860853571728    2.23349066699113
C          -8.54815710099357   17.43409675711648    2.41653484127277
C          -9.35424950197089   18.67567101065199    2.59340374462064
O         -10.56453572365807   18.67757995985302    2.57749100951708
C          -8.56894603375189   19.90951368659553    2.78331566881127
C          -7.23508644418401   19.93808198609790    2.85498288068079
C          -6.38688168326509   18.73465121293486    2.76129246668032
O          -5.19092096724861   18.76688813374671    2.95200850463906
C          -7.11432634572856   17.47957604771070    2.44878394393430
N          -6.38240694807810   16.40905404195304    2.23379682093785
C          -8.95520902588111   13.92443559687629    1.87863716826312
S          -7.68413817369145   12.80364059604200    1.67188534881709
H           7.66362223346107   -3.17131376364308    2.32164648411466
H          -0.25379169320478   -1.71105600487218    2.88165853097592
H           0.40830789860380   -4.07454576071294    3.08213708303383
H           8.31392914645713    2.21469509993030    1.69791121319754
H           6.41240468008227    8.13224101995778    1.41846089470960
H           7.09368236749426   15.30600376915681    2.00473290369042
H           8.76468944140351   13.49352275609351    2.02705161968167
H           1.54862237841151   13.39230449030383    1.42240911435044
H          -4.23451801078582   15.71450988912601    1.58050264615814
H          -9.15747975556074   20.81256014043883    2.87569134396927
H          -6.69814853293187   20.86421405993481    3.01005978671985
H          -9.97627421156126   13.60216942569985    1.86426822489461
