87
 SCF done       -199.724759860568          0.000809283431
C          10.41246545266302   -0.19355854471085    0.86066648715409
C           9.39367704446075   -0.77487712400825    0.13985874647796
C           8.22225208069459    0.06882170266362    0.05807990594343
N           7.15756717481270   -0.29365079909402   -0.65799327706398
C           7.20943210122434   -1.46266727501168   -1.25717018912269
C           6.05299308538159   -1.82595624989470   -2.11235868498152
O           5.16161378913818   -1.04729583874233   -2.37234429760416
C           6.08526908036731   -3.19891856818467   -2.65072145365163
C           7.11836421246547   -4.03088799080605   -2.49043902545777
C           8.34573848343064   -3.68300162546148   -1.74999456571974
O           9.28088630416824   -4.44605443686545   -1.65815854622374
C           8.34241255777285   -2.33209631478729   -1.11973601312380
N           9.40982105752934   -1.98588930740997   -0.44667614162881
C           8.38271450207756    1.27978018074967    0.74570681136736
S           9.96834749045944    1.35036759088521    1.43972059996427
C           7.42637836786082    2.31030248829319    0.86106305016157
C           6.08566653347122    2.22149683294764    0.50746471593687
C           5.41760972666892    3.41896980890878    0.72611940498886
C           6.25576804770335    4.44054670396343    1.22708151719026
S           7.85739148353413    3.90327733278823    1.47208786596467
C           5.50884027322282    5.63187812644800    1.34451743463405
C           4.18603183581091    5.36526173086526    0.92330260820133
C           4.07856563055477    3.96117997641165    0.55923350607334
C           2.94973903062249    3.28878386576169    0.19661404988460
C           2.92469441914059    1.89206980174323   -0.01401433994132
N           2.86736465396767    0.75457835329405   -0.14047203518627
C           1.70363152080196    3.93896250192432    0.06423342676252
N           0.69013800977719    4.46228132825078   -0.05259474599317
C           3.37310860637215    6.48626727195896    0.96888947592830
C           4.06033888757884    7.61286635416140    1.41233083762591
S           5.73624426243052    7.26545821072507    1.79977776992572
C           3.54235885044786    8.92843314099338    1.51604025456562
C           4.34345865712839   10.01274905318317    1.94350382735517
C           3.88346395724929   11.37242597492679    1.97729807581321
N           4.72934078820408   12.33383797031698    2.40154753526848
C           5.93069522607248   12.02039960516179    2.76483860442749
C           6.38863244778215   10.67825111527073    2.72088249145444
N           5.60590395293221    9.72900083049879    2.32175171154432
F           7.62398554032397   10.35452169669989    3.08743184988538
F           6.72681235997099   12.99551589097178    3.18444575472586
C           2.57087391981641   11.71811771564101    1.56940240088119
C           1.75085754632932   10.62653123972271    1.19942299885839
C           2.21209549312387    9.26195037135896    1.16948592062824
N           1.24698318198829    8.43079125988747    0.77510647750348
S          -0.09046656815041    9.25953184528001    0.47672116949270
N           0.47523208826484   10.72311812401796    0.82437624012980
C           2.07253688676403   13.04512379678908    1.48463634859496
C           2.73397280406239   14.24141546485269    1.74659923749375
C           1.93784653752725   15.34684163608926    1.48839927078115
C           0.64656326894874   14.99815521833756    1.03164279312006
S           0.42384585433180   13.30760537206311    0.92727113216384
C          -0.06681311574506   16.18557939311749    0.76749418077406
C           0.76579708957473   17.29215880902721    1.04554830186458
C           2.03834505608179   16.79763119140703    1.54831763472904
C           3.07591959003267   17.53639973556063    2.03171692408840
C           4.27182773546086   16.94586774892704    2.49634317350677
N           5.25421715305839   16.48451187577585    2.86464480761888
C           3.01457554650072   18.94182613481602    2.16453393650865
N           2.96958000093755   20.07476637230081    2.33033004000677
C           0.17194567732293   18.51159069304451    0.74692782672915
C          -1.12119282570307   18.34873916789309    0.26632437138322
S          -1.60065802733085   16.65746483904958    0.18400855720712
C          -1.99044819479756   19.38206557177448   -0.14167016624570
C          -1.64705221069241   20.72401432891619   -0.35588606632886
C          -2.77834458680097   21.52788571870252   -0.76177877221651
N          -2.63643624223822   22.84597025357763   -0.99310991139997
C          -1.43109017133309   23.34121404336800   -0.87513038553220
C          -1.27324160608250   24.80539284589182   -1.10696557823055
O          -2.20026718208539   25.52470786518157   -1.40415438061344
C           0.09869951459249   25.32070636016241   -0.94033720617857
C           1.15522075166495   24.54876843700369   -0.67014045996681
C           1.07601849903330   23.08390208445052   -0.51480052696963
O           2.06182198674796   22.38839430131801   -0.40264666259956
C          -0.29870347886509   22.52646216196993   -0.53971954407280
N          -0.42302727622110   21.24589311874290   -0.26990959805400
C          -3.93794210785392   20.79301668093067   -0.86380614119820
S          -3.67525618256803   19.15153722749858   -0.47252255458225
H          11.38140695327240   -0.59815955533137    1.07076745466528
H           5.20886476055832   -3.48943612228535   -3.21430701250067
H           7.11217084276882   -5.02497851281796   -2.91722675365772
H           5.66328666975736    1.32072425121373    0.09957569149997
H           2.33580871156491    6.52558594557327    0.69210792829798
H           3.74826906849604   14.26688710632824    2.09743124720966
H           0.62480113729378   19.48212130344309    0.84238096178253
H           0.20058388737057   26.39014455930895   -1.06810017761590
H           2.14850853192029   24.96571626457176   -0.57214479539249
H          -4.91145445530359   21.13870438996402   -1.14557533750175
