101
 SCF done       -194.566180014687          0.000452029386
C          -1.27161855812735   -3.96688356580448   -5.03980228512203
C          -2.37820488010250   -3.24852546985526   -4.59587727901875
C          -3.43247766014525   -2.84854543519313   -5.57761991110316
C          -2.50781458588943   -2.89994794183955   -3.24177307356031
C          -3.69661054820672   -2.12718863088984   -2.76891625696474
C          -1.52162550665905   -3.27976482906979   -2.33775243916260
C          -0.42896043072830   -3.99318479162736   -2.78657537740147
C          -0.28823958307493   -4.34407841454221   -4.13983711182175
C           0.95702415040394   -5.08411753177995   -4.31241849258253
C           1.42471587546889   -5.57835193468015   -5.50159294442052
C           0.74956330334126   -5.44114140207519   -6.73366245991564
N           0.25801438762665   -5.36750163241372   -7.76854366130042
C           2.62862963255888   -6.28837801248570   -5.69367564211521
N           3.58531410612251   -6.87213660871658   -5.94696922890079
C           1.58527581756021   -5.18916890011416   -3.00316657162639
C           0.72067076616063   -4.49780547430396   -2.02285781321681
O           0.91193520697994   -4.36613633934708   -0.83019667916477
C           2.76259795203403   -5.82333092553119   -2.73618583949709
C           3.45543194475265   -6.01137681962167   -1.51770831055087
C           4.64564462141485   -6.71552541322673   -1.46830538631655
C           5.18970549260061   -6.83061493629728   -0.17987855541579
C           4.37100761740370   -6.17857156540122    0.78682166660843
S           2.96529545147728   -5.44508813993474    0.06688736017677
C           4.69344966976343   -6.16933349120226    2.12578487265610
C           5.85673176671192   -6.82959884844943    2.52683010042714
C           6.67602849887240   -7.47825232273899    1.55691288999920
C           6.36277102504887   -7.48479476759214    0.22090879946688
S           8.05687413902353   -8.23942453723083    2.30388621031701
C           7.53166974323496   -7.70734499525989    3.89325754906458
C           6.36938735876451   -6.97683579151894    3.83149163660198
C           8.28536883481981   -8.08433067310376    5.04819934173155
C           7.94806521260617   -7.73999661734573    6.37690974512114
C           8.70545519612729   -8.22873988181566    7.49815022733983
N           8.33651080533813   -7.88150203653399    8.74834053549146
C           7.31400889679988   -7.11519815366723    8.93289882881403
C           6.56984638618231   -6.63005552130629    7.82643094413503
N           6.88572070572323   -6.93877414698852    6.61310781319564
F           5.51787717944522   -5.83192971207521    8.00402359431661
F           6.98718287227342   -6.79137934962792   10.17988666035963
C           9.82905169574336   -9.07345182129088    7.36825079296067
C          10.20474261062063   -9.37178237635684    6.04029590809596
C           9.44162322584888   -8.88390049917021    4.91547326144627
N           9.95845795022421   -9.29253115246965    3.75627612566125
S          11.25688509235465  -10.18545079721648    4.03760745425983
N          11.24134514762665  -10.11235350507765    5.63915640822649
C          10.49963752624986   -9.61459448557692    8.50694825131892
C          11.59527865416277  -10.44530160088955    8.49355264524357
C          11.99136706212701  -10.88099043389888    9.77415395920009
C          11.15288266862968  -10.34914750785942   10.79416833870748
S           9.92092707270131   -9.30817918012869   10.13022534107260
C          11.32453821760664  -10.66592511568210   12.12088365937431
C          12.35469758541856  -11.54752683430809   12.45722279876529
C          13.20501320751331  -12.06199886169331   11.43803150337445
C          13.03920749919362  -11.74268962673465   10.11078160361964
S          14.41067173238253  -13.12551219908070   12.10232516074545
C          13.73822069671186  -12.94055830890704   13.71115947717191
C          12.68138798763470  -12.06746974928456   13.72749165754639
C          14.34819046508934  -13.62348323932872   14.79973231171217
C          13.79376726613152  -13.98430360469232   15.98287019153324
C          14.68113893335099  -14.31868141420600   17.13858220731430
O          15.86786797136506  -14.54416096420223   17.09174052487005
C          13.80567268988363  -14.25436180297321   18.32066605581109
C          12.47577816580008  -14.04239129943873   17.91369694220064
C          11.48087052799498  -13.92193759432415   18.86845742767523
C          11.80403464860406  -14.02252005002162   20.21833239117847
C          13.13138687035117  -14.24824766427061   20.61815199677462
C          14.13154738704626  -14.36052654843611   19.65796702080155
C          13.47300559316650  -14.36667917425209   22.06856287688060
C          10.72256486824948  -13.89104624332038   21.24200449237741
C          12.42248090291822  -14.02578512880760   16.45612245334765
C          11.30458879057872  -14.26324645832523   15.70236716571946
C          11.32204301950461  -14.50445575908414   14.31292834268225
N          11.27499615609143  -14.75655473540449   13.19425095240431
C          10.00735893783041  -14.38242546920498   16.24262930440032
N           8.93013065862713  -14.46455629414502   16.63059875794425
H          -1.19774023832189   -4.22040157298096   -6.08494094712825
H          -3.18630918955292   -3.20306694945126   -6.57457473312452
H          -3.53365706600867   -1.76416521113177   -5.60895628309890
H          -4.39913590124674   -3.26031315516974   -5.28978019137309
H          -4.61465158180684   -2.68137958545298   -2.96240723249885
H          -3.77022656496895   -1.17630302623752   -3.29553565637038
H          -3.62824382868930   -1.93015539825980   -1.70262803398228
H          -1.59910518287946   -3.02484908048461   -1.29136635478290
H           3.27406238479789   -6.27810705897212   -3.57645220162836
H           5.10237230498123   -7.13924313128744   -2.34606724152966
H           4.06605810561131   -5.67408752571141    2.84954122977866
H           6.98879522324544   -7.98139190398669   -0.50308461334471
H           5.89632837101564   -6.56629634754389    4.70283873701784
H          12.08470754129004  -10.73887515984156    7.58339997725781
H          10.67392863668394  -10.26581324712493   12.88205847701870
H          13.68445764666914  -12.14775911559078    9.34783707538149
H          12.16820578452664  -11.77816743518723   14.62817320933206
H          15.40783571719348  -13.83684005612301   14.69784179090351
H          10.45675788136727  -13.74062441387486   18.58228009747253
H          15.15797350108167  -14.53241967710522   19.94557205159637
H          13.19485807857139  -13.45873816460237   22.60279788639410
H          14.53800410454361  -14.53554701133817   22.20108776584667
H          12.92986535458603  -15.19441294452444   22.52340631554122
H           9.75912992869702  -13.72914067245088   20.76680154555025
H          10.92728064244413  -13.05561985094718   21.91079440099886
H          10.66224599717245  -14.79218924330681   21.85107370977329
