153
 SCF done       -260.013377521811          0.000556726161
C           7.64557180642248   -4.17785931546275    7.99070902079419
C           6.99219498378369   -4.46578999592890    9.18576100043718
C           7.48273545920488   -3.84641355946022   10.45549429570398
C           5.88459406211016   -5.32782837504097    9.20486189469967
C           5.18795749095497   -5.63834113558174   10.49085087398656
C           5.43774410122196   -5.89748173402237    8.01748447332910
C           6.09243210204388   -5.60740303932468    6.83819663729103
C           7.20184760080632   -4.74676299482090    6.80829956196080
C           7.68169799885075   -4.63906348014280    5.43400806983085
C           8.74636077149405   -3.87663865195294    5.02785755844817
C           9.52483573241296   -3.08272718585394    5.89640104191158
N          10.20085131188389   -2.41626600783498    6.54252457820741
C           9.23279018253154   -3.75840515972938    3.70930438959977
N           9.70017533134800   -3.60072284258957    2.67143233722270
C           6.82975308656815   -5.47982896520677    4.60880226891534
C           5.80588811148541   -6.09198752822624    5.47911270452343
O           4.90588064475131   -6.84277658636724    5.15654328066596
C           6.97625631445220   -5.68082029088260    3.26585835582587
C           6.24404565296622   -6.48748558745538    2.36885923877412
C           6.60833384867266   -6.59894060185673    1.03896270345221
C           5.80057912100358   -7.47072329020334    0.29244814673521
C           4.75570758366894   -8.01589130778924    1.08907740608338
S           4.83656997830584   -7.46367928791432    2.74015028048833
C           3.78525246869846   -8.86090743736692    0.57155608624950
C           2.68575358284984   -9.38260713466962    1.39315280542732
C           1.36855354973822   -9.28355880711896    0.95324854342380
C           0.33128625351295   -9.76831549451427    1.72693041292825
C           0.57605255892382  -10.36481721004535    2.95654360043335
C           1.89258635632128  -10.46012425830493    3.39412764172866
C           2.93361985573142   -9.97559809584995    2.62862439271244
C          -0.54305711168892  -10.88263833974130    3.80777200019944
C           3.89657584512411   -9.19158186291004   -0.79027929257692
C           4.94532980976830   -8.65006683318729   -1.58195349312621
C           5.90988909483128   -7.79742658852342   -1.07684799079161
C           7.00501659239519   -7.28441446927429   -1.90695621059813
C           6.74466392216426   -6.69043505134784   -3.13951257912378
C           7.77915624072293   -6.21767161138719   -3.92140923278744
C           9.10080381027135   -6.32935621250644   -3.50439878277519
C           9.35815088234684   -6.93032962831962   -2.27850283920856
C           8.32802176837338   -7.40029184847960   -1.48755925992363
C          10.21691256195381   -5.83492346156905   -4.37117632650529
S           4.89248325586244   -9.26469425183295   -3.21263120541174
C           3.49851858097994  -10.25266366922586   -2.82525623495633
C           3.10063068466235  -10.09760891555520   -1.52542767246688
C           2.89336391434051  -11.13112427364271   -3.78520545930736
C           3.37300415932303  -11.34251750709924   -5.06977799321060
F           4.45476603677052  -10.66893978374624   -5.49984233657017
C           2.80434716495263  -12.24884261591069   -5.97797551825458
F           3.40448474934519  -12.34511458483980   -7.17768994310212
C           1.69604541467098  -13.03397218111950   -5.69551439106397
C           1.15721887477693  -12.81230012244599   -4.40269109249349
C           1.73730603897577  -11.89288623808464   -3.47785716184599
N           0.99093984951940  -11.92822338941407   -2.36472004289748
N           0.05445139440665  -12.79652745688640   -2.62447812714105
N           0.08984024854549  -13.35656124342590   -3.80071415008784
C          -0.97066025667016  -13.10823452496587   -1.67677933956604
C           1.13821393302506  -14.00645389921198   -6.59171582797864
C           0.08101743767003  -14.82978699873742   -6.31426774623495
C          -0.23513565503151  -15.72290325176523   -7.36164592255508
C           0.64362809399042  -15.56414721850412   -8.46664392202337
S           1.80378082369542  -14.29749828199284   -8.18610485097611
C           0.55948243081497  -16.34042326136769   -9.60695535060245
C           1.51172006531109  -16.27572912214241  -10.72313996673454
C           2.86970103918845  -16.46431750590941  -10.48242826006079
C           3.75615773965048  -16.57206921970104  -11.53491763546827
C           3.31918326462946  -16.48728509912526  -12.85189174892562
C           1.97060903126809  -16.24773796098629  -13.08596044777678
C           1.07551316409751  -16.14582560217863  -12.03849752878594
C           4.27279979245561  -16.69852933356144  -13.98429177654089
C          -0.43462259450927  -17.33608950244016   -9.61135549694825
C          -1.27808974380279  -17.53401729356966   -8.48691010203642
C          -1.22198975242614  -16.72680301722743   -7.36311775345223
C          -2.12475170611968  -16.90498167190535   -6.21806864964394
C          -2.28225071371104  -18.15351954742973   -5.62198624525013
C          -3.12917541820257  -18.31162239257827   -4.54365427244628
C          -3.84635819695947  -17.23559396144656   -4.03173926552135
C          -3.69128847851859  -15.99339594073900   -4.63238814795785
C          -2.84218941909428  -15.82599981950448   -5.70992452324460
C          -4.76643291089414  -17.42831802337558   -2.86510209493720
S          -2.33081347723002  -18.90279523094096   -8.73047095912509
C          -1.59087906707698  -19.24362659772610  -10.28830988170946
C          -0.64851685016006  -18.30266950656619  -10.61140616474285
C          -2.00642896119473  -20.36838551967807  -11.04099582706195
C          -1.39936756048419  -20.94626236555271  -12.11320442087806
C          -2.20505239481323  -21.85159040414964  -12.98391173144025
O          -3.27054082559602  -22.35570143475183  -12.71090692111471
C          -1.45082131902773  -21.94084915779795  -14.24631340556120
C          -0.23166814691246  -21.25250925467934  -14.11620026558885
C           0.62790978717438  -21.17912949793672  -15.19849125190314
C           0.28382572045674  -21.79791285918792  -16.39670278057895
C          -0.92666107019607  -22.49924810098209  -16.51444726138042
C          -1.79505512566710  -22.56219855814830  -15.42952884208179
C          -1.28578981000489  -23.17694042997783  -17.79785285292200
C           1.22038322289360  -21.71480011537654  -17.55954250437509
C          -0.10628850120909  -20.76597531182394  -12.74541957074367
C           1.07983397893583  -20.43901562366027  -12.13932830860631
C           1.23675120037728  -20.28762951742845  -10.74612222277872
N           1.43091155322418  -20.20928423321187   -9.61756946796961
C           2.29671962530028  -20.26554478684151  -12.82673952502198
N           3.30390063057655  -20.06695744317973  -13.34205438229931
H           8.49399749549698   -3.51303502422794    8.00597494972141
H           8.35008299898011   -3.21947484365048   10.26916473731076
H           7.75696319354951   -4.61612917405176   11.17586960575472
H           6.70280995963977   -3.23519012648920   10.90845067393516
H           5.87228236518741   -6.11865415454037   11.18963628787309
H           4.34420646014689   -6.30135044356081   10.32065536743855
H           4.82510564073582   -4.72553925655867   10.96168248158289
H           4.58797757416884   -6.56367685375390    8.00555011478386
H           7.79457030987682   -5.16093998328546    2.78147030969679
H           7.43536224705830   -6.05039880011679    0.62292885962041
H           1.15600184096171   -8.80182079599925    0.01013549529587
H          -0.68554407569261   -9.67550874699016    1.37119599835661
H           2.10211150510229  -10.92006193158708    4.34913718627555
H           3.94903928545695  -10.07256935384420    2.98143171705048
H          -0.34351283439766  -11.90564463506620    4.12327167472950
H          -1.48780464032738  -10.85878966076283    3.27005570507131
H          -0.64276041710393  -10.27288111240868    4.70548884117176
H           5.72379843090693   -6.57916194610382   -3.47364867835707
H           7.55908454204048   -5.75300467379060   -4.87169139947069
H          10.37884809275484   -7.03339561741456   -1.93875244786116
H           8.54882904203575   -7.88680805605432   -0.54836557600083
H          10.43678810668476   -6.56884850389520   -5.14722447192011
H          11.12107228211626   -5.67452824512761   -3.78913920275724
H           9.94154319270056   -4.90370978550551   -4.86178699598589
H           2.27498987955364  -10.64400874310477   -1.11073863938057
H          -1.68887908836939  -12.28843740894058   -1.61970804076860
H          -0.52308293254277  -13.25122775329321   -0.69418680097407
H          -1.47345391357916  -14.01444066042824   -2.00707990124225
H          -0.43270713507978  -14.80309155573740   -5.37226074676382
H           3.22069507695482  -16.56582677112498   -9.46653112745696
H           4.80310180732312  -16.74481386354777  -11.33357947479419
H           1.61379686675370  -16.15420665688060  -14.10233839321281
H           0.02943096261311  -15.95626776546577  -12.23717636340542
H           5.24846257305378  -16.27563629339068  -13.75638352379854
H           3.89716651674794  -16.25512347076684  -14.90343627337435
H           4.39874833178204  -17.77015111347252  -14.14535766453969
H          -1.72036131753431  -18.99748394712656   -5.99285474434356
H          -3.23680409050410  -19.28539389039191   -4.08785607188082
H          -4.24565704604881  -15.14487631443205   -4.25587994807250
H          -2.74893497999260  -14.85634539629565   -6.17666923738644
H          -5.57986416216461  -18.10102280456592   -3.13501114573010
H          -5.19417102046059  -16.48211762716947   -2.54288257174353
H          -4.23237188677211  -17.87522796613580   -2.02754423775843
H          -0.13370174561623  -18.28143056269770  -11.55396604484079
H          -2.96517168894152  -20.79971510819732  -10.77033102415193
H           1.55971489508430  -20.64006620687556  -15.13062565793027
H          -2.73191859281547  -23.09430420691993  -15.50035322313307
H          -1.33251679643414  -22.45514404426452  -18.61269182155331
H          -2.24998311419407  -23.67080726426182  -17.71560497036968
H          -0.53474487041852  -23.92107563466956  -18.06096240678622
H           2.10407534970951  -21.13751681973833  -17.30225127182646
H           0.73214311085163  -21.24541706634003  -18.41296383998819
H           1.53458014484155  -22.71136545783280  -17.86785890535693
