101
 SCF done       -187.766656340478          0.000673588572
C           3.64214976567941   -8.17118418007748   -8.65606711176190
C           4.58071645691796   -7.77880617530744   -9.60571082310211
C           4.14132844073063   -7.54566446677316  -11.01581907393275
C           5.92748670603153   -7.60338659844960   -9.24867308176629
C           6.93355529729453   -7.18624236256786  -10.27272189033914
C           6.32248306165852   -7.81873727494095   -7.93303289180459
C           5.38411990269056   -8.20437627087597   -6.99689634647646
C           4.03743604983251   -8.38997945938428   -7.34636449033404
C           3.29875582283912   -8.81057875647919   -6.16262465945002
C           1.99260730424631   -9.22165116429700   -6.15671886007713
C           1.16842556470223   -9.23810425990228   -7.30284020653073
N           0.44193959813872   -9.27234849701221   -8.19123536857995
C           1.27549238879442   -9.72470765143193   -5.04929066521395
N           0.61544986098602  -10.16538009412933   -4.21894395615207
C           4.21956406015849   -8.77736023139663   -5.03044863626853
C           5.57511405186724   -8.47699181380777   -5.56342341717105
O           6.63537325380090   -8.44976957425752   -4.97337127754769
C           3.81432312702525   -8.90236760275010   -3.73419723836762
C           4.53565510532732   -8.88986917492316   -2.51499962454028
C           5.87714110847804   -8.86100414245345   -2.22608487143518
C           6.15860957719389   -8.86999128249460   -0.84407967503621
C           4.97703622927244   -8.91361092652374   -0.04904035185482
S           3.55546617645879   -8.94519324700101   -1.04428921919179
C           5.01591326409137   -8.92596188542386    1.32771941018635
C           6.26623697919516   -8.89172169551302    1.94567257936024
C           7.44721766279930   -8.84683043004205    1.15320604674269
C           7.40964198300499   -8.83799840586157   -0.22129874050480
S           8.87628179274303   -8.80175490534971    2.14881385917113
C           7.89853022257672   -8.84566489004636    3.60483566434113
C           6.55933033294353   -8.89159287220379    3.32991297454503
C           8.56027502154018   -8.82629880799601    4.88059770612315
C           7.93495269524775   -8.88261681174926    6.11796169112857
F           6.59538002305380   -8.96503267409473    6.20265994436936
C           8.62761344670846   -8.85972714781848    7.33972734618458
F           7.86902613945845   -8.92251503805843    8.44830097863017
C          10.00864152528421   -8.77470322914680    7.45440459842910
C          10.67735177776817   -8.71351560645121    6.20616607967151
C           9.96939643002260   -8.74202687765047    4.96911017372985
N          10.87637962291123   -8.67328872474036    3.98753198139648
N          12.02133788861246   -8.61012494544882    4.60373071933492
N          11.98226632754291   -8.62841048889977    5.90743773167963
C          13.25335797691404   -8.52270406676977    3.88292513764558
C          10.72150499126706   -8.75160898744440    8.70106877700606
C          12.07648976072400   -8.62997077632614    8.84677701044797
C          12.50344844578954   -8.64344578857535   10.19390826340623
C          11.41185792338284   -8.78510325485241   11.09515660985230
S           9.89909534392648   -8.88891830088137   10.24469604290185
C          11.58445473519036   -8.83227727624088   12.45977129389100
C          12.88540232231020   -8.73806372517251   12.95780749602525
C          13.97487986905966   -8.58421935104632   12.05571131808387
C          13.80274038011980   -8.53917195254458   10.69123063001157
S          15.48586216742275   -8.47254062516667   12.90618683008543
C          14.67560090867830   -8.68807062035776   14.44918977835532
C          13.31752677061151   -8.79714064608717   14.30160608851599
C          15.46315138636568   -8.65481451332926   15.63133473748779
C          15.19971514757196   -9.15052085001477   16.86608040246387
C          16.00521126894363   -8.65472179711171   18.02398250690750
O          17.02625043592559   -8.00952952969998   17.96347146956984
C          15.25898772134784   -9.07758325420397   19.21953386103671
C          14.16260032707800   -9.87071991460617   18.83584636192333
C          13.30584803562479  -10.36194665538263   19.80592687813903
C          13.54627861935394  -10.07895132678799   21.14739177763665
C          14.65203580352175   -9.29969777909243   21.52467309840445
C          15.50517413581478   -8.79631594769916   20.54836388794790
C          14.91653369604795   -9.01078029064215   22.96735414098482
C          12.61777333669705  -10.61788010158043   22.18787163843661
C          14.19087126239882  -10.05203195338906   17.38755018135864
C          13.56236378153331  -11.06112637425193   16.70742633441059
C          13.81730120975737  -11.38795456530572   15.36011223069738
N          14.01832120358740  -11.72861209533497   14.28278404360710
C          12.64753383343215  -11.95550911782434   17.30077340854239
N          11.87857033779851  -12.69371925896467   17.72689521857494
H           2.61418449903117   -8.29454632669968   -8.95607394445957
H           3.07579464684472   -7.72838684521428  -11.12310145871062
H           4.67770945732619   -8.20511391955388  -11.69727335488592
H           4.35141774319883   -6.52005831325845  -11.31769864928788
H           6.65861464843078   -6.22754556315505  -10.71152623360875
H           6.98197792341890   -7.91522587930352  -11.08109974473822
H           7.92061846737206   -7.09464173033033   -9.82786152785184
H           7.35194565265357   -7.68832330675058   -7.63411863779284
H           2.74647159658256   -9.00990599889518   -3.58032888056391
H           6.63721395522350   -8.83088922572601   -2.98491195669619
H           4.11262063602602   -8.95995419309536    1.91563283208729
H           8.31156651300637   -8.80401626408230   -0.81095582879362
H           5.79200828834207   -8.92242300487868    4.08069463062376
H          13.02129022229118   -8.56640349714162    2.82157341739225
H          13.90493247526017   -9.35057280137442    4.16306408073805
H          13.75664354582142   -7.58456625658121    4.11943545747941
H          12.74057672975895   -8.53676998182642    8.00788222807435
H          10.74692697770355   -8.94942858335799   13.12895704962999
H          14.64033738268059   -8.42920112138629   10.02136135346522
H          12.63687297285534   -8.87870135112096   15.13118471204617
H          16.39631965512919   -8.10340698075144   15.55524392963975
H          12.44673737648833  -10.95671865056622   19.53822693856034
H          16.35995798189053   -8.19372517096344   20.81684933059453
H          14.06983568184596   -8.49284157843787   23.41667379664381
H          15.80232465742506   -8.39182012969433   23.07987540990034
H          15.06648806523194   -9.93684908354218   23.52154257347774
H          11.82431734682235  -11.20306845263415   21.73154603487144
H          12.16903639213766   -9.80565252380804   22.75897911868272
H          13.15828332527055  -11.25278192535173   22.88900286155802
