89
 SCF done       -175.359645794261          0.000302256482
C          -2.30489789244690   -1.45044534230750   -0.69931983851069
C          -2.37941123638144   -0.59165633961188    0.39352228795443
C          -3.12690880150485    0.69653751958681    0.26223516579973
C          -1.76098278650839   -0.92744087407616    1.60874206477001
C          -1.84708208814103   -0.00460896396327    2.78162837400951
C          -1.06336765111178   -2.12562192421606    1.71697783510680
C          -0.99098124268977   -2.96951094844826    0.62710837385350
C          -1.61326701553687   -2.64521956879658   -0.58890053260688
C          -1.37729306751432   -3.72565957228449   -1.53764552410030
C          -1.97469693887557   -3.84632983191104   -2.76430425263778
C          -2.86141042763360   -2.88986313737302   -3.30336744322834
N          -3.58496444603241   -2.15015913525343   -3.80052378702142
C          -1.84563664292006   -4.94401947316256   -3.64232826522026
N          -1.81865043286551   -5.80282479425581   -4.40441490983648
C          -0.47577951516735   -4.68014259621314   -0.90603027076197
C          -0.30758995814062   -4.26838186528620    0.51287665094548
O           0.27298598759736   -4.84718124089538    1.40754149609505
C           0.17951918811096   -5.66166661867237   -1.59431676833248
C           1.06557491449274   -6.67108722810322   -1.16068920327480
C           1.41284819561667   -7.12866053355541    0.10111736369382
C           2.32234138210294   -8.17558337522217    0.04094847097287
C           2.69415033545790   -8.54491677610097   -1.26620149886467
S           1.88089829998956   -7.58188490086310   -2.43827123624966
C           3.61857476783714   -9.58022816534811   -1.32034482935189
C           3.96658976052995  -10.02886626921174   -0.05536007666663
S           3.12464287952512   -9.15685657412505    1.21637759164297
C           4.88790932189850  -11.05859364482619    0.29510238996334
C           5.69757152555521  -11.76470678306579   -0.62572612396293
C           6.61410166142461  -12.78524320612244   -0.19560536776906
N           7.37763623992183  -13.41768301055237   -1.10924806818183
C           7.28000016976991  -13.11105854025980   -2.36022555741559
C           6.37071084025285  -12.10734646578577   -2.78488124608173
N           5.62447147735131  -11.47325150560151   -1.94261443523733
F           6.26071355757253  -11.78244405109473   -4.07076270803665
F           8.05487595397221  -13.75320520706614   -3.22677563787191
C           6.77071837473969  -13.17397866570486    1.15433836114606
C           5.96482580122792  -12.46999190182452    2.07800233608564
C           5.05513658344625  -11.43616568686840    1.64688148235249
N           4.40058539418470  -10.89707167324983    2.67546186268301
S           4.86849196810350  -11.60353717098709    4.03456207428804
N           5.92504474432780  -12.62975562748286    3.40286315524665
C           7.67934216254365  -14.19850496311377    1.53950195152918
C           7.88512479355559  -14.67085111604814    2.82764101859806
C           8.84455205277257  -15.67321833408406    2.86164321311977
C           9.38692708053151  -15.98440808595949    1.60184642881920
S           8.68632757699741  -15.00932906864913    0.35704563511592
C          10.33341703694192  -17.00067168302676    1.63653223673770
C          10.53588275117643  -17.48278678905413    2.92003097782567
S           9.54809811973692  -16.63893919978246    4.10279268133063
C          11.44706167194288  -18.46138151290618    3.38146680124921
C          12.09969222869102  -19.43309973368096    2.68968772105949
C          13.32154841337221  -20.04830143910483    3.29146010259297
O          13.68001965447690  -19.95489629045544    4.44263333846202
C          13.99743790801896  -20.72491137454580    2.17233743482159
C          13.19086692452636  -20.65482339052659    1.02204024276423
C          13.64567430128212  -21.20201864609861   -0.16471400147767
C          14.89034129615187  -21.82434091157297   -0.20487631742029
C          15.68388117478572  -21.90598185725692    0.95084855473027
C          15.22869393620558  -21.34796447094264    2.14106081801209
C          17.01411312204347  -22.58667648517796    0.90766075231064
C          15.37671146005013  -22.40748971220098   -1.49256526618178
C          11.93666495253703  -19.99085481140547    1.36357114021946
C          10.76234577139215  -20.11028428665903    0.66744255367493
C           9.51419601498472  -19.68218953540003    1.16254562962829
N           8.47318148091128  -19.38456286186993    1.54361202757854
C          10.65499681594333  -20.75817261000720   -0.58012204448110
N          10.51987733251486  -21.25888751864382   -1.60414549278036
H          -2.78378666055377   -1.16742542571144   -1.62283478075219
H          -3.54390638198780    0.80070391356686   -0.73551407561339
H          -2.46830818046155    1.54276214512188    0.45527908756733
H          -3.94030678563478    0.74165891793456    0.98560686352624
H          -1.41503013829892    0.96554082405169    2.53801504469265
H          -1.31658820355419   -0.41664491657670    3.63560068507607
H          -2.88642480722953    0.16064566195318    3.06358167801356
H          -0.57814523021265   -2.40380754872696    2.64067490392582
H           0.03221718090337   -5.66832186983749   -2.66872428337986
H           1.02057390775997   -6.70404162121586    1.00607706967950
H           4.02688952310193   -9.99702216613575   -2.21999816349442
H           7.35192043509307  -14.28937809117133    3.67744509573457
H          10.88163457886608  -17.34376835718348    0.77830469846585
H          11.72293613827309  -18.38903121520604    4.42962180095531
H          13.05431510020021  -21.14373926846031   -1.06506804164601
H          15.82489806618512  -21.39847201269713    3.03983618542712
H          17.66669907886797  -22.10695072078797    0.17894639020735
H          16.90128276142651  -23.62901418019861    0.61117644922751
H          17.49568171192126  -22.55295904452646    1.88097261886915
H          14.63954562001125  -22.27445394771012   -2.27937998879002
H          15.57571474274267  -23.47239600483975   -1.37894092186034
H          16.30669232675805  -21.93062671335388   -1.80101620917172
