140
 SCF done       -242.023429873912          0.000493465342
C           1.02126052229847   -2.96264377685860    7.08320937728007
C           0.86494974843380   -1.95833702331679    8.03426503867886
C           0.34379153140023   -2.30889499980488    9.39152295168203
C           1.19091100394169   -0.62827052069690    7.72574361804744
C           1.01581335469381    0.44951460802267    8.74731479679884
C           1.68129811315366   -0.31344714493832    6.46244617768581
C           1.84021303863497   -1.31471891106201    5.52621463975463
C           1.50637420711421   -2.64717785570408    5.82618864003842
C           1.73437347783210   -3.46970827413584    4.64196258271892
C           1.15883652896517   -4.69171581547138    4.40822614009643
C           0.45206241247399   -5.42997826821921    5.37749182400909
N          -0.09478595207077   -6.09423762189789    6.13835856279321
C           1.16224200845512   -5.33100996577946    3.15115876994862
N           1.10015832316411   -5.87035529614965    2.14006202211130
C           2.45652087293836   -2.65018510850971    3.68994384105684
C           2.36286227174790   -1.23408471981039    4.15036923117520
O           2.69715620058105   -0.24898332282009    3.53279531509497
C           3.25962334125100   -2.94112998286305    2.63065383866448
C           3.82438135085706   -4.18486331619311    2.25876630134028
C           3.94571871430860   -5.33062211278723    3.00326482042006
C           4.59742911303164   -6.38323386470566    2.33637066654607
C           4.81527220117597   -7.69226418875431    2.81626741795947
C           4.38350375050732   -8.06825261748084    4.14674166596717
C           4.53366348410687   -7.37907384348898    5.31786342818905
C           3.91876903255572   -8.00816755232871    6.41793160303717
C           3.29011247358475   -9.17099506763714    6.09218994085984
S           3.46955818980133   -9.52643053982813    4.40617561360165
C           2.50099587528294  -10.07038856554549    6.97361345422179
C           5.40186158364608   -8.58510209905392    1.93248030737822
C           5.81683367174289   -8.21507234015923    0.62901034736709
C           5.63321121336392   -6.89653280494027    0.15830835790183
C           4.98963502121747   -6.01935748246910    1.02229179716324
S           4.57518539164222   -4.36308141924876    0.68283937546077
C           6.11228643848132   -6.49131421240666   -1.14728971251252
C           7.30967087410461   -6.79395909887906   -1.73354948739344
C           7.46440014911029   -6.22365647137207   -3.01262619241173
C           6.38906420482209   -5.49126870536620   -3.41160357166083
S           5.15448565521869   -5.48155963641165   -2.19443280926816
C           6.19138814055870   -4.75756356040861   -4.68884235190934
C           6.36445487029374   -9.31695220057248   -0.06493579173968
C           6.40795214173996  -10.47254752686631    0.66880624085560
S           5.75309882445725  -10.26154932301749    2.27263854861877
C           6.92313786177074  -11.74725672174691    0.25090042614507
C           7.43855982173085  -11.98328788261466   -1.01406042830160
C           7.95418556498572  -13.22189489647996   -1.36975497592788
C           7.99690090063672  -14.30308913792730   -0.50038388786496
C           7.45555485357473  -14.11144750105990    0.80666937447432
N           7.42428103157849  -15.11324543791881    1.70389865979232
C           6.91538343025448  -14.88390362279017    2.88509128289881
C           6.40341546925599  -13.62492833650647    3.24114379240713
N           6.41635699633292  -12.63757761158685    2.38818917457733
C           6.92712294297139  -12.83825617164071    1.16544209115430
C           8.57705476052573  -15.55138582393652   -0.91949298961317
C           8.83917278122050  -16.66648891674161   -0.17866121162277
C           9.44230265987511  -17.71876864116632   -0.90651078919273
C           9.86705131524222  -18.97225447156689   -0.41927751929003
C           9.78677338446067  -19.33581579631188    0.98004232009098
C           9.47968207340494  -20.55647164697418    1.51454542548909
C           9.54328481369085  -20.58383609710305    2.92109055372944
C           9.91314868871053  -19.39507093072784    3.47060773424130
S          10.17755368576282  -18.20020574931424    2.24417294339470
C          10.09958060431251  -19.05585354543667    4.90572544256323
C          10.39688496650495  -19.84959699478643   -1.36027633524670
C          10.54836532235629  -19.52068060182889   -2.73204744726537
C          10.17295828533139  -18.24567838239376   -3.21004074882556
C           9.60683397303549  -17.38757352802112   -2.27510028300352
S           9.06303148828246  -15.76686582047195   -2.59550331987815
C          10.41816234814954  -17.82576625917122   -4.57237870467882
C           9.64237123292634  -17.03638705761493   -5.37659923098471
C          10.22597185146696  -16.76972767732492   -6.62946887258857
C          11.45620348477027  -17.33360979756848   -6.78963955488264
S          11.91188353802435  -18.22910840123214   -5.38144568138290
C          12.37913029781158  -17.24116363145533   -7.95136419840541
C          11.10805116451005  -20.58293502973967   -3.46923564141502
C          11.43735644862489  -21.67741801179967   -2.71126439902275
S          10.99850637387008  -21.44754976602410   -1.03005523486968
C          11.97235258115489  -22.92464199184939   -3.12000606551343
C          12.60908118513201  -23.24688477660416   -4.27657990377587
C          12.69485416715320  -24.68192171744980   -4.67769735782969
O          12.49351182917346  -25.64283450322533   -3.97108849096324
C          13.01570269271003  -24.65662127265565   -6.11558242876093
C          13.23994046700988  -23.33040298916984   -6.52656097915491
C          13.53412371628308  -23.06857212890721   -7.85325623673843
C          13.61308122034671  -24.11903899304436   -8.76305574690412
C          13.40120321237458  -25.44210554724600   -8.34392256236771
C          13.09896029370386  -25.70312405863351   -7.01142517795591
C          13.49665351738209  -26.56954319429419   -9.32132113341724
C          13.93072583662523  -23.82683486019257  -10.19480467708225
C          13.14832232278931  -22.45416847581408   -5.36306952248320
C          13.70597348761284  -21.20608937664655   -5.26442984957601
C          13.87591166431901  -20.53150235185476   -4.03755679235118
N          14.08570575176777  -19.97913641817266   -3.05398177127293
C          14.22539699604063  -20.49079987644154   -6.35969006613135
N          14.61633489428297  -19.85183473847041   -7.23075299796754
H           0.77252098541795   -3.97998913395849    7.34217418975520
H           0.13114990412785   -3.37215843003171    9.46001181237890
H          -0.57141850935717   -1.75725263331584    9.60318159601358
H           1.07031305305552   -2.04763020295706   10.16047154619945
H          -0.02674959077396    0.51921158758108    9.05609301222099
H           1.32451720154445    1.41169784010385    8.34814069130101
H           1.60810064464336    0.23495112126068    9.63633365413297
H           1.93790016417937    0.70353458041934    6.20596759217339
H           3.57039900789674   -2.08295057467942    2.04282889854235
H           3.60092857777890   -5.41292413749508    4.01687790525345
H           5.10740753099734   -6.47196727126886    5.39779422656653
H           3.93962518282336   -7.60857909968834    7.41659624522902
H           2.72265206851632   -9.86079150826684    8.01749435761916
H           2.72545011291982  -11.11397785394476    6.76186878430627
H           1.43362991389050   -9.91642880958331    6.81036207446964
H           8.07529682353865   -7.36894370390209   -1.24334836806386
H           8.34727029820340   -6.35113342533350   -3.61414237940087
H           7.06707501378622   -4.87190317075082   -5.32334991813033
H           6.02860249843231   -3.69674776150123   -4.50064391871506
H           5.31928221396325   -5.13786629318101   -5.22020177511013
H           6.69247328963124   -9.25081983654964   -1.08562969313903
H           7.44848426163215  -11.19177201710006   -1.74647989615973
H           8.35088387868283  -13.34788722616400   -2.36703193995439
H           6.90657935242257  -15.71678992258687    3.57538320665762
H           5.98179878591315  -13.42513403569200    4.21595781868220
H           8.59019482424049  -16.71806646752398    0.86340754217616
H           9.17919198793593  -21.40189215852291    0.92263589606829
H           9.32290542165947  -21.45978837253513    3.50503530518467
H           9.81292342793762  -19.90065023672816    5.52747266184221
H           9.49472142941415  -18.19243821297922    5.18081273569014
H          11.14171971398898  -18.80934542517860    5.10970548523669
H           8.66548383104365  -16.68780691536402   -5.09381684145370
H           9.74898557362225  -16.17585768766706   -7.38902947114627
H          11.82016148007911  -17.28447210877515   -8.88455511343878
H          13.10787554052013  -18.04874445578984   -7.92912461301804
H          12.92311303912448  -16.29575004021119   -7.92641595138075
H          11.20877881058716  -20.56647565416757   -4.53888391694012
H          11.79091216736869  -23.75943314359559   -2.44979642966591
H          13.69421354746826  -22.05847942462479   -8.19650341283011
H          12.93247434750518  -26.71359488088420   -6.66920882548484
H          12.76615743587692  -26.44610185560700  -10.12041070946349
H          13.31549516599992  -27.52130471292111   -8.82961945220293
H          14.48425651510942  -26.59709940075447   -9.78045412321104
H          14.06770736479427  -22.76026125064900  -10.34971090922596
H          13.12791449521358  -24.17430315538687  -10.84432421848928
H          14.84270759399593  -24.34118280261461  -10.49578870573847
