105
 SCF done       -212.567275872237          0.000944019110
C          -2.04664033632515   -1.92153901237406    4.78251886398021
C          -2.45603067346720   -2.28314641788082    6.06360492090591
C          -3.50219577774109   -1.46855043666067    6.75378359631504
C          -1.89641384475440   -3.40014291918360    6.70440842112226
C          -2.33619806611150   -3.78319377706302    8.08049883759615
C          -0.92729364398804   -4.15314386465891    6.05000362381668
C          -0.53010924550016   -3.78877485421367    4.77946334682925
C          -1.08086465626755   -2.66981037744541    4.13105549234130
C          -0.46766143611086   -2.53490400967968    2.81283303647333
C          -0.74335638363592   -1.54280253158603    1.90952555826605
C          -1.67796243985590   -0.50917948449914    2.13434944019707
N          -2.42288508430419    0.35622534435211    2.25047647839758
C          -0.14854675959706   -1.39093957069315    0.63896698663697
N           0.28708866357199   -1.19324162782556   -0.40511852116023
C           0.47398851277660   -3.63250108171855    2.66079767841758
C           0.45602971369129   -4.42556168820815    3.90009409717754
O           1.12368372731564   -5.41547461731127    4.14901349914747
C           1.23032292426926   -3.90226960955342    1.55240738021582
C           2.14049825083486   -4.94553474024038    1.30436427149264
C           2.79338329423252   -5.07151917991459    0.07146749386000
C           3.62661292489094   -6.17241963456879    0.02365813386692
C           3.62135658939624   -6.89973661474857    1.23960686558620
S           2.59379017358691   -6.22981799112513    2.42216475704476
C           4.48261832030052   -8.01123135545326    1.09458760889943
C           5.03057993701259   -7.99232463068528   -0.20728728358567
C           4.51537426640434   -6.83452864819912   -0.91904755116572
C           4.80395882340356   -6.45832464780303   -2.19775854681971
C           5.68625233814702   -7.19501956372795   -3.01655376192888
N           6.40060440807064   -7.78534236436332   -3.69176682446415
C           4.23960257207259   -5.30900017486516   -2.79110935217819
N           3.78464321069184   -4.37818097824210   -3.28167639740205
C           5.87803426833882   -9.06346330833960   -0.44923990173918
C           5.98672733230217   -9.90180011569517    0.65588277019712
S           5.02759496575554   -9.34243604593543    2.01581630093592
C           6.74487448541173  -11.09958087066688    0.74120069343717
C           6.79401197139460  -11.86361618738318    1.92835697686374
C           7.52186787615646  -13.09463283587618    2.02358796805642
N           7.51837424489324  -13.77307538478584    3.18802488668594
C           6.86544184817785  -13.30683731172520    4.20286563655979
C           6.14640699619710  -12.08671103254034    4.10918855409060
N           6.12417061042411  -11.41087535873745    3.00631774365515
F           5.47548444218774  -11.60502870127436    5.14976471060576
F           6.88662924412583  -14.00589430476750    5.33261686826287
C           8.24086890221978  -13.63932870842554    0.93704886057795
C           8.21642908347863  -12.86868669402742   -0.25041039058211
C           7.48611240841355  -11.62419088049139   -0.34538476769369
N           7.60687263263434  -11.08165540340389   -1.55794645583752
S           8.52929597940823  -12.01510658300802   -2.47564902870600
N           8.82839443722169  -13.16213110654721   -1.39868608327783
C           8.92018508628478  -14.88185158608367    1.04230649658524
C           9.62314335078299  -15.53371688879161    0.03370458792375
C          10.14547896343880  -16.74459589786800    0.46300931370769
C           9.84560074177222  -17.01922976550680    1.81470215394689
S           8.91712051490121  -15.78527034779271    2.54636080165244
C          10.41400278078000  -18.26962416673328    2.14631643037231
C          11.06234882943369  -18.79646631512561    1.00924437474056
C          10.91735912696436  -17.85015967370173   -0.08415870173263
C          11.39342693899231  -17.97322645002687   -1.35598635342546
C          12.11849270659138  -19.10728613621566   -1.78044535369745
N          12.69966605688450  -20.03053585693040   -2.13311541212061
C          11.18384189336501  -16.98033912759417   -2.33697327247007
N          11.01487723481303  -16.18196098391320   -3.14238277000079
C          11.62684385146665  -20.04591961135736    1.24223372043357
C          11.45637218964141  -20.46389602998769    2.55301531958144
S          10.52837487094861  -19.29928167611815    3.49615334749813
C          11.86115929001608  -21.71267015076271    3.08567104104768
C          12.02620397189270  -22.08086535666119    4.38209163039551
C          11.97799047579502  -23.52843903504498    4.75170407157902
O          12.05271526844838  -24.46710400580537    3.99391527406205
C          11.75563450126835  -23.53750788567354    6.20766285655690
C          11.82174037372893  -22.22306231842671    6.70574245118859
C          11.62173270722302  -21.99146275243215    8.05503447820303
C          11.36495374033346  -23.06190700895555    8.90697676613589
C          11.31061437940034  -24.37343568459764    8.40670501868290
C          11.50555265673117  -24.60342190078551    7.04853831163156
C          11.04440325654332  -25.52159613282462    9.32619462513085
C          11.15023970204526  -22.80409403202910   10.36363749118066
C          12.14759670715086  -21.31954457947236    5.60913474810394
C          12.73499617275382  -20.08867700449739    5.73921128817107
C          13.28852467070517  -19.37775961040507    4.65472371743120
N          13.78107195840005  -18.79315379066161    3.79804161625830
C          12.93634944084027  -19.44498555833889    6.97689316770568
N          13.11088875583215  -18.87685599690280    7.95877764564600
H          -2.49335262434609   -1.05908481943447    4.31497205740388
H          -3.82867019493221   -0.64543966563559    6.12440344233662
H          -3.11561848934802   -1.06134609581317    7.68744799254439
H          -4.36685449380978   -2.08496179673248    6.99781335746116
H          -2.15119681452943   -2.97006801628439    8.78169296686637
H          -1.80350367249744   -4.66581400330669    8.42347443612124
H          -3.40521699497983   -3.99307827685079    8.09655866155154
H          -0.48353747030095   -5.01729287084552    6.52144458337723
H           1.12365545410750   -3.23040387984420    0.70914296199078
H           2.63761288639310   -4.37382100471971   -0.73262225926427
H           6.40220861657103   -9.25999704010788   -1.36619252433405
H           9.72360246154623  -15.11515546427179   -0.95063145779981
H          12.16526633072443  -20.62847500658363    0.51661700016068
H          11.97921550452771  -22.51070068252725    2.35806571471776
H          11.65096197153288  -20.98991745757538    8.45508366504445
H          11.46777611325136  -25.60461739474960    6.64597601079078
H          10.08468646809449  -25.39653744905511    9.82691916975290
H          11.81178851789575  -25.58039333401274   10.09746199716155
H          11.03067050490086  -26.45955067995137    8.77785269775012
H          11.23258030562145  -21.74327320599655   10.58409206193956
H          11.88847049907490  -23.34094909113077   10.95868957128361
H          10.16424992510895  -23.15014755087390   10.67328951961889
