111
 SCF done       -202.038537358890          0.000807860514
C          -4.61182756958598   -3.70722942795823    0.25177592307380
C          -6.00137396981462   -3.61874601851474    0.25068263620734
C          -6.65761476821994   -2.40746990684781   -0.33149679212914
C          -6.78122609860482   -4.65167195570511    0.79303770866606
C          -8.27285419452598   -4.54728273453431    0.80455413251869
C          -6.16037654417211   -5.77872172871421    1.32273302873182
C          -4.78334230350359   -5.86257639497027    1.31463305103101
C          -3.99575375497418   -4.82413202738385    0.78778330876368
C          -2.58548129331039   -5.16237703708929    0.96765617484885
C          -1.55674219960215   -4.25300165844324    0.96187128917886
C          -1.70219115142349   -2.90483356236297    0.57996142609210
N          -1.75188838959156   -1.80548784050339    0.25051078209689
C          -0.24967192474530   -4.52166547961699    1.41156467224207
N           0.82102627528997   -4.65668344547258    1.80478709994005
C          -2.53071683257007   -6.53652955826545    1.40867841586800
C          -3.90865843511709   -6.94694538004285    1.79557844236537
O          -4.22660203295007   -7.97531155271536    2.35065666686455
C          -1.52947761815031   -7.46367460689697    1.45825391860648
C          -0.27021355258054   -7.44800501795439    0.82953290635095
C           0.16972776601103   -6.71565928750418   -0.27038669123796
C           1.48642084084969   -6.95858933107283   -0.61071626243967
C           2.08358748025229   -7.89154352129952    0.24529488592006
S           0.99466980896558   -8.50637969223034    1.41990385021244
C           3.45927160211692   -8.12496608038399    0.05568221450503
C           4.07667523159252   -7.37684572770029   -0.95378456209544
Si          2.79373473596422   -6.26759872682200   -1.79743627407236
C           2.48365341436282   -6.75168035499666   -3.60884638136036
C           3.08089993013604   -4.41438409876610   -1.51142199483939
C           5.43532187265208   -7.62592016745736   -1.02023548853828
C           5.88029776814109   -8.55624353532697   -0.08440047960744
S           4.55703404921833   -9.15113743427539    0.89320594765706
C           7.20453901175680   -9.00577012763847    0.16875284511962
C           8.36385150554859   -8.48450271263778   -0.45532010649815
C           9.68199088019327   -8.92632843233299   -0.08772640707093
N          10.75441509766062   -8.37742067940408   -0.69059951666104
C          10.59663393109216   -7.46594343916611   -1.59424239153098
C           9.29838558870185   -7.03773897904252   -1.96042786376689
N           8.24162709816181   -7.53401028090691   -1.40502935863814
F           9.11747744609103   -6.10334299530053   -2.89613247383357
F          11.68453947932509   -6.94955641461042   -2.16033889683684
C           9.92836889136550   -9.91489453211903    0.89432349176089
C           8.76983201966977  -10.47295042725355    1.48600614275698
C           7.44865568342399  -10.01500676842916    1.13019238141312
N           6.50305977718694  -10.65518704538535    1.81552441263964
S           7.18836942063092  -11.72060990384024    2.80056213015448
N           8.72016743564967  -11.42766543897411    2.41581635789543
C          11.24526257874248  -10.28532192816015    1.27053296209067
C          11.61289493992708  -11.25735879854091    2.19953771656199
C          12.97928810669019  -11.35594136174626    2.38723622071374
C          13.67542049802483  -10.43986491535765    1.58870119140079
S          12.64175454534282   -9.48216768474737    0.60044383064412
C          15.07584812191913  -10.43771246855152    1.72883301697852
C          15.62064217174750  -11.33639633352194    2.65157560366684
Si         14.21625249318866  -12.35419925409415    3.41716485161199
C          14.02703528986756  -12.06302885789747    5.28549890245766
C          14.29714698696109  -14.18639454706128    2.92665702083428
C          16.99642717785076  -11.21202007044787    2.73675930740498
C          17.53035469369592  -10.26167320415699    1.87251790839291
S          16.26421611338057   -9.46869150827487    0.95727884990800
C          18.88554354461574   -9.87312138608491    1.80302774763376
C          19.52083380752079   -9.13692929447534    0.84951781973777
C          20.76950529059086   -8.39998953807478    1.18935628391569
O          21.46967460024447   -8.56995095798127    2.16246128684038
C          20.91337855679875   -7.39114610531247    0.12307650121256
C          19.93070295195405   -7.60109367251599   -0.86111667228889
C          19.85431923010925   -6.74796625335175   -1.94688108388258
C          20.75498241792698   -5.69201607512812   -2.05699142306411
C          21.74258846179834   -5.49421694409186   -1.07921940470986
C          21.81479389097197   -6.35182747472477    0.01417373898149
C          22.71440073868357   -4.36444354937425   -1.20513808249419
C          20.66044488882791   -4.76707906082833   -3.22830574425596
C          19.15735088953351   -8.78556390938029   -0.50560068327123
C          18.45780714426602   -9.57420080777717   -1.38191977055267
C          17.98385432308991  -10.85883618142735   -1.04662366753286
N          17.63166408495845  -11.92795700307958   -0.81950975940958
C          18.23890514623951   -9.23760166956833   -2.73189694177924
N          18.02918415056459   -8.99878250206327   -3.83533815927689
H          -4.03216493661049   -2.90401775139601   -0.17536323781806
H          -5.91444876280765   -1.70664262170782   -0.70159002547620
H          -7.26525110162970   -1.90433803072306    0.41987779235265
H          -7.31580734001899   -2.68584193722897   -1.15405625139673
H          -8.59085767323795   -3.67104103507973    1.36876869215024
H          -8.71678704425354   -5.43044262905743    1.25569387453588
H          -8.65808094044765   -4.44275942583023   -0.20930080230635
H          -6.74234168081508   -6.58517455872374    1.74334992166749
H          -1.77278669697161   -8.36005656945230    2.02125249681403
H          -0.47702599869791   -6.05369737316873   -0.81896993773021
H           2.31160999120478   -7.81817238449776   -3.71785363590074
H           3.33751081185190   -6.48729285207194   -4.22377785984065
H           1.61814824667540   -6.23079199663601   -4.00545161762019
H           3.07520771828281   -4.17608365577401   -0.45172301000886
H           2.30214893384473   -3.82639644766164   -1.98692043142648
H           4.03352627488722   -4.09809452260131   -1.92433836584129
H           6.10623898806939   -7.15515231823415   -1.71225368276864
H          10.87858397001965  -11.85356075412540    2.70829035690895
H          13.99745600405218  -11.00489676338307    5.52650614445892
H          14.85324102670483  -12.50705359274659    5.83111313566869
H          13.11035335045093  -12.51384768310541    5.65115051843067
H          14.46192389988808  -14.30409916746155    1.86006333067704
H          13.37380236249125  -14.69619772647547    3.18221977175686
H          15.10712214548509  -14.68844642006979    3.44589615124353
H          17.62012528735841  -11.80173877900007    3.38488124350600
H          19.48418393351107  -10.11382994826997    2.67686480639935
H          19.09636427953011   -6.88150361457810   -2.70298876768389
H          22.56704644231061   -6.21374624014608    0.77646765473857
H          23.29274894551202   -4.45703526501991   -2.12395096511242
H          23.40077056343903   -4.35151415966140   -0.36289757101617
H          22.18982438617925   -3.41008858013787   -1.24180366304498
H          19.85558201189230   -5.06857600617638   -3.89285545207691
H          21.59355477457775   -4.76500940189113   -3.79065891381436
H          20.47440858240309   -3.74609499951474   -2.89560536637785
