105
 SCF done       -204.110477277378          0.000375872732
C          -3.54602849152448   -1.98724960873254    2.30682328768303
C          -4.26549351847295   -1.47586682183067    1.23047371643004
C          -5.39652793225308   -0.53262783779708    1.48854888399254
C          -3.93666746469337   -1.83866255353851   -0.08566967927775
C          -4.70907989833140   -1.28490649783901   -1.23925823665164
C          -2.88520666231645   -2.72022944721208   -0.31314931315718
C          -2.17734288294402   -3.22186113072464    0.75990444759879
C          -2.49633455997813   -2.86172715429168    2.07915589341735
C          -1.57536492758529   -3.53511948072004    2.98594617945062
C          -1.49879204937254   -3.32521164299757    4.33874470684656
C          -2.36091196452503   -2.46612108487519    5.05241477434790
N          -3.02988511620162   -1.78920483680747    5.69461506588126
C          -0.54435626536508   -3.89160531671742    5.20948908220409
N           0.20571572027371   -4.29194950271760    5.98224993530728
C          -0.71127444849529   -4.38807085661392    2.18535245392276
C          -1.04457252892071   -4.16111876203616    0.75380718416370
O          -0.54191287768518   -4.67041197629393   -0.22515088240249
C           0.13348604136153   -5.32662789579616    2.70885332825124
C           1.09522468164179   -6.14458836531390    2.08201150416755
C           1.67233341550585   -6.11022310271122    0.81799089145054
C           2.64737942383298   -7.08435125561785    0.66111192618370
C           2.82348472548581   -7.88966152568738    1.81213501026978
S           1.80131466036123   -7.42116305649838    3.08635864351981
C           3.82623450704327   -8.84883775019371    1.55216990595454
C           4.29455915712915   -8.64983609505731    0.23546841144430
C           3.57713631845977   -7.53339088712041   -0.36179028880535
C           3.76666036751610   -7.00898801275200   -1.60588306506031
C           4.71226055827922   -7.54422914640399   -2.50730097623268
N           5.47644927945551   -7.96962961413101   -3.24888684406415
C           3.06160668827381   -5.88325896547184   -2.08510090652986
N           2.52491122087056   -4.95808035130596   -2.49696324035532
C           5.30652557980419   -9.53197332083146   -0.11261080158228
C           5.61564029752173  -10.40409720070372    0.92566713015597
S           4.63130610032134  -10.13432408800959    2.35161433074328
C           6.62090886540559  -11.40354062194266    0.92732886264920
C           6.83058419155918  -12.21507594084924    2.06756192711307
C           7.87079937352840  -13.19433467789005    2.12815659340970
N           8.02526592964446  -13.93072875211796    3.24136731896531
C           7.22005986942981  -13.73932515788904    4.24985451285293
C           6.19658811020849  -12.77259997523007    4.19118061987973
N           6.02109175603684  -12.04026794723943    3.12591085662054
C           8.76741419560105  -13.41309725609971    1.05505620393297
C           8.54348255762759  -12.62976865990959   -0.09920989369340
C           7.48622495145719  -11.64436330867180   -0.16322157526855
N           7.46868788034915  -11.02540710509838   -1.34560126581177
S           8.63684580045158  -11.60892699462164   -2.27270386075021
N           9.23780940065387  -12.67360168167420   -1.23832275085845
C           9.82741119761732  -14.34584264056279    1.17718729926906
C          10.81251137357482  -14.61999933590603    0.23472796371614
C          11.72581173998997  -15.55528710653153    0.69773228988889
C          11.43067483500681  -16.00978807529010    2.00177373980741
S          10.02846377174866  -15.27229972173457    2.65339773628701
C          12.42655302456340  -16.93878757288073    2.38118627943521
C          13.35679816823735  -17.06328734539591    1.32613984287795
C          12.93700721417916  -16.20891765934320    0.22987554741964
C          13.54778389800089  -16.07410397270828   -0.98245881648493
C          14.72476414568793  -16.78706617452941   -1.29375941352288
N          15.68665889891926  -17.36605577959270   -1.52823051654055
C          13.05256821271413  -15.21829602746838   -1.98857235168149
N          12.66024468097109  -14.51772631520058   -2.80701183821345
C          14.37879620616947  -17.95882777605627    1.60543686847140
C          14.24201461896839  -18.53833430089621    2.85943174777599
S          12.82888564330198  -17.92248181042013    3.71073860578687
C          15.09096401524908  -19.45896479255027    3.51191589363776
C          16.06746661647951  -20.24579197481718    2.98416368183286
C          17.11599347560636  -20.79281778740911    3.89886103129719
O          17.06720735339150  -20.82276085356541    5.10713243849082
C          18.21128272485395  -21.21574326273202    3.01234395544092
C          17.81028250126224  -21.08021150624521    1.67089115815213
C          18.70223086482833  -21.38012960914816    0.65688062611783
C          19.98206298588634  -21.82624617200655    0.97524444092371
C          20.37033873187346  -21.97986327460776    2.31617965373538
C          19.47552810539916  -21.66693813041524    3.33431794648302
C          21.74108359992507  -22.47151538440099    2.65411404587153
C          20.94263127806473  -22.14151730081023   -0.12574247654041
C          16.42207360352535  -20.63083882047294    1.63356500080991
C          15.56894678512515  -20.80315879866964    0.57494507734840
C          14.18071399332005  -20.57632514529054    0.64059546644607
N          13.04234261209629  -20.42694774567775    0.66000141679374
C          15.96716638787211  -21.32359459919588   -0.67451227902989
N          16.23778480334823  -21.74973098551360   -1.70496528674987
H          -3.82228164343104   -1.69680634994586    3.30766555270981
H          -5.51486517793387   -0.35390583301176    2.55362408570707
H          -6.32926550634194   -0.93741789351347    1.09703826592288
H          -5.21894300058830    0.42127680751106    0.99311518105662
H          -5.76234723567288   -1.55193425154184   -1.15830555438741
H          -4.32415054074916   -1.66917691594573   -2.17973328653304
H          -4.64664730885809   -0.19729415859109   -1.25554094198095
H          -2.61282593548194   -3.01443379668786   -1.31569201311238
H           0.06501819276401   -5.49341263052673    3.77789326444095
H           1.37410054877227   -5.40438625353700    0.06457018282467
H           5.81973016951134   -9.56844479442323   -1.05579608647633
H           7.37619226519082  -14.35404678061449    5.12450185223079
H           5.52325538671862  -12.60211969507977    5.01874572627873
H          10.83194104646238  -14.13691346215584   -0.72489426271455
H          15.21396748648040  -18.15328208887399    0.95786256982191
H          15.01011247220120  -19.49919779200506    4.59413975556584
H          18.42561798692456  -21.25838102234759   -0.37857247293003
H          19.75750258055140  -21.77297936944133    4.37120115246068
H          22.49863240176672  -21.80075181805228    2.24985883116079
H          21.91180353167284  -23.45730543355531    2.22288001970675
H          21.87287120100805  -22.53559009805078    3.73066670060430
H          20.48572871248785  -21.97155888390440   -1.09650600667664
H          21.26100245172214  -23.18180626403753   -0.06863443470946
H          21.83414181265355  -21.52025023677649   -0.04534486376781
