99
 SCF done       -192.850930921063          0.000818131481
C          -2.10406753628790   -1.08308122619132   -1.39313164985978
C          -2.38036073509544   -0.64739144552109   -2.68584035183385
C          -3.16287180123503    0.61123976115677   -2.88216933978542
C          -1.93217161531132   -1.37866967954496   -3.79829108137453
C          -2.23813713402707   -0.91250714170470   -5.18479462614617
C          -1.19808680391275   -2.54344024300465   -3.60337193947997
C          -0.92735346256291   -2.96637922423356   -2.31785082553627
C          -1.37905811747212   -2.24781440924201   -1.19932573439109
C          -0.95708476047199   -2.94387992079474    0.00931275227872
C          -1.31657722701200   -2.59787094715799    1.28540971119614
C          -2.10896343277405   -1.47347248216118    1.60272142809427
N          -2.74188945286053   -0.57482897800816    1.93376391342924
C          -0.99066145413039   -3.30332291090690    2.46333861048161
N          -0.78902279312576   -3.82302108702704    3.46782605108183
C          -0.15626766340065   -4.09220373872406   -0.39764044186434
C          -0.17146044361313   -4.15076291638348   -1.88526755935499
O           0.35170411179351   -4.96705527588606   -2.61306474405186
C           0.56060112012826   -4.86361064216077    0.47041405614026
C           1.34533677890059   -6.01849060838327    0.25411378727532
C           1.50304374225316   -6.85721885498705   -0.84004425564580
C           2.39261240636172   -7.89272878864908   -0.58121954723114
C           2.92391991270282   -7.85508544307566    0.72475261610555
S           2.31007587723093   -6.56014344523109    1.63557093125405
C           3.85393431919658   -8.91937619701171    0.86147932956715
C           3.91129633203084   -9.62139608093782   -0.35237002671301
C           2.96950680643317   -9.02705002010084   -1.28734687229351
C           2.66575192682301   -9.47457551138988   -2.53777486609772
C           3.26608898495167  -10.63168827779292   -3.08223594268554
N           3.73202072993968  -11.58480405418361   -3.51610401213066
C           1.69878234302605   -8.86157902548510   -3.36523179499330
N           0.90585678044681   -8.40270821028816   -4.05349080470051
C           4.85081364910846  -10.65530469513463   -0.33606902378697
C           5.48594132244417  -10.74741829466284    0.88223091168853
S           4.91687407481654   -9.55477105150935    2.03581131759873
C           6.53986591262194  -11.66412975680676    1.23173104104477
C           6.71039473906646  -12.24635743555461    2.47560318068792
C           5.89583624683179  -12.09103706944406    3.59732381795799
N           5.22862570956302  -11.97584342327343    4.52478449376936
S           8.08658777339580  -13.30646925991948    2.52775305880557
C           8.47108920359951  -12.95838317746269    0.87223153862224
C           7.55344260067236  -12.07419079781561    0.31730304729876
C           7.62161277020571  -11.57591424536393   -0.99455867117617
N           7.66227452267570  -11.13821165884699   -2.05402043769083
C           9.62471741732477  -13.52675281811654    0.26358297001023
C          10.23623805147146  -13.15786690892640   -0.92139460050031
C          11.37552805988387  -13.91994672392839   -1.17478501021682
C          11.62466715031325  -14.88733756596433   -0.18421124534442
S          10.46895139827320  -14.84620090876458    1.06624090547265
C          12.79525525094509  -15.60856779227504   -0.53455051536719
C          13.28981548316107  -15.08293899145066   -1.74241486926443
C          12.41500502576142  -14.01076326556407   -2.18753376065210
C          12.55456386465509  -13.26534154141869   -3.31978138399582
C          13.62041649817517  -13.49294242969097   -4.21732045012355
N          14.49435810721576  -13.68784486891692   -4.93336473883215
C          11.67591448517915  -12.21330642749933   -3.65901396219612
N          10.98682841914229  -11.33915741725868   -3.93061598806598
C          14.44090459817158  -15.72606782277766   -2.18110992322998
C          14.82504130168751  -16.75021672523313   -1.33029276088068
S          13.75458573535479  -16.88571269878815    0.05573349666387
C          15.95225172896860  -17.60280345966348   -1.42922522564337
C          16.71417965423927  -17.86978465039086   -2.52032229388717
C          18.08883485995120  -18.42988312975844   -2.31840361887124
O          18.51612048822256  -18.92255624016791   -1.30092644303903
C          18.78695283692219  -18.18426618064154   -3.58888916432053
C          17.88049756031621  -17.67038415711160   -4.53475433739814
C          18.33065503339817  -17.32385101897304   -5.79640815284636
C          19.67295178110061  -17.49933437759555   -6.12067024448234
C          20.57035065038587  -18.03012625859020   -5.17871440769187
C          20.11771793683675  -18.36864584697215   -3.90767052850118
C          22.00845751237814  -18.22719771224100   -5.53442397047766
C          20.15325857914608  -17.11640855147943   -7.48288404304609
C          16.54963364537251  -17.62170776433595   -3.94045361196767
C          15.37339684475560  -17.60656482121112   -4.64151975372205
C          14.10555209391851  -17.77773721162854   -4.05209543887179
N          13.05804263786582  -17.93796219645168   -3.61007337376830
C          15.30200232988343  -17.50725627405176   -6.04773292861758
N          15.19100048255602  -17.43417704533476   -7.18710789356662
H          -2.45735021121916   -0.50057322772618   -0.55767586300087
H          -3.42920686256897    1.05376947479656   -1.92639966173898
H          -4.07716657779236    0.40937170544201   -3.43918131477742
H          -2.58390366709365    1.33629866089056   -3.45325761990013
H          -1.82415981851424    0.08083261737154   -5.35531845621234
H          -3.31489669392740   -0.84997455469786   -5.33880931697932
H          -1.82075758301740   -1.59420005269365   -5.92057360899897
H          -0.83971960257496   -3.12276558055494   -4.44107840011216
H           0.56153102349905   -4.54468614409669    1.50647212877166
H           0.99879533666374   -6.69062118450597   -1.77470462560807
H           5.05266277743009  -11.31294309412679   -1.16141322098660
H           9.87505368961101  -12.36808824509366   -1.55373568887833
H          15.00444138956601  -15.44416018141076   -3.05132650067817
H          16.30073285341583  -18.05014069031936   -0.50332343244861
H          17.65880024570766  -16.90383277819939   -6.52829244773541
H          20.79337417422959  -18.77316310572747   -3.16901728349491
H          22.46390440994410  -17.28106708461451   -5.82507535435685
H          22.10392596955293  -18.90985697763550   -6.37817566770841
H          22.56148025010762  -18.63544102612974   -4.69307933725200
H          19.33507290001310  -16.73622303509801   -8.08782887313854
H          20.59063925645698  -17.97586954484504   -7.98944217629817
H          20.92340297266561  -16.34861625693586   -7.41482705748649
