104
 SCF done       -201.872332558377          0.000593564502
C           1.89550392844196   -1.44373943189103   -7.12813255209023
C           2.39422085417508   -1.64551322839976   -8.41250928988256
C           1.96451737364823   -0.73216633886569   -9.51499877267413
C           3.29233361613078   -2.69265935903979   -8.67384444496596
C           3.82603713156782   -2.90521007746777  -10.05362588461869
C           3.68397069114489   -3.53625690720272   -7.63962283407639
C           3.18374907878678   -3.32938696867354   -6.36994589852122
C           2.28561572143674   -2.28253845827799   -6.09802157205836
C           1.93277043184287   -2.31402155913062   -4.68197111787661
C           1.04537333790624   -1.47140975045584   -4.06725784199036
C           0.35758394640575   -0.43111840313509   -4.72862086779541
N          -0.23232434131004    0.43158663449200   -5.20342888596720
C           0.67067525342120   -1.51387620326217   -2.70736220115477
N           0.30671533296722   -1.48421821555061   -1.61857632981575
C           2.67379279257137   -3.41007440603417   -4.07794974661608
C           3.44886788762007   -4.07746411314560   -5.13590582507274
O           4.17092082013555   -5.05266232220464   -5.01256527335617
C           2.68363705411364   -3.74480003129359   -2.75209904896020
C           3.35429205320330   -4.78343179520493   -2.07962700436078
C           3.24830630589893   -4.94437699219762   -0.69415898983562
C           3.96384887020221   -6.03374468293817   -0.23218815283757
C           4.62364564297279   -6.72216981442162   -1.27612182347523
S           4.37459005898989   -6.02104212113677   -2.80859470749738
C           5.31166094595476   -7.82643750900677   -0.70962328317207
C           5.08500618225947   -7.83427902468404    0.68174110451838
C           4.23870697442647   -6.70485013099847    1.02871070634880
C           3.80356414724421   -6.35151870138008    2.27164462377676
C           4.14603837361425   -7.09433158786264    3.42159931060170
N           4.42779961748428   -7.69860523119440    4.35424017354223
C           2.98803053830352   -5.22142253346973    2.49330210157706
N           2.32796370306534   -4.30356662190208    2.68253066362360
C           5.70996385308558   -8.89941855699663    1.32081520774082
C           6.40630491988064   -9.69636070782717    0.42533309825396
S           6.29480222946989   -9.11924209531550   -1.23160363201699
C           7.13067964798491  -10.87254162957228    0.73067946047800
C           7.83106524717000  -11.70694084249891   -0.10857714434045
C           8.14831458052811  -11.78079664003172   -1.53534231196415
O           7.83880558561009  -11.04062174741772   -2.44006196976085
N           8.91234796049018  -12.93519417967902   -1.67249536161736
C           9.44197269497301  -13.38549463814758   -2.93573289055435
C           9.11107689335436  -13.61936447787627   -0.47883918920092
O           9.72794936038148  -14.65326418443318   -0.36434331048678
C           8.41627401523744  -12.82210301422118    0.53273746267688
C           8.18745494070020  -12.88412520045361    1.88717948230241
S           7.21790962532335  -11.49923038222662    2.37232217925241
C           8.59703779889616  -13.86772558496266    2.81774310177467
C           8.32770409072316  -13.88695561200481    4.17754006743617
C           8.84976655447643  -15.02152889923845    4.78903255778646
C           9.52172448131407  -15.86518412118370    3.88163565702573
S           9.52013545114377  -15.26628018004232    2.28535696707067
C           9.99728788895788  -16.99732150910812    4.59383848196642
C           9.62009897211644  -16.86778230104082    5.94418990409358
C           8.90333013325908  -15.61581330741718    6.11472663532924
C           8.41839080641838  -15.10516744325756    7.28258882004076
C           8.56490187188076  -15.79648698883653    8.50384413921108
N           8.68489209207707  -16.37312046674355    9.48773735278315
C           7.74654751860581  -13.86591832076062    7.33921779231302
N           7.19505652372902  -12.86176357149701    7.37951408264464
C          10.04742759204009  -17.93019485022543    6.73135230283174
C          10.75691924606697  -18.87027952342011    6.00012152553256
S          10.86187492975807  -18.43256094384421    4.30002951252540
C          11.31827312971728  -20.09389293757413    6.43699268378795
C          11.61929736438199  -20.48769736467405    7.70184470693789
C          11.79095790323798  -21.94849516520394    7.97715383475280
O          11.93195339346040  -22.81989645300509    7.15077510567752
C          11.68941154475254  -22.07444856236679    9.43903423237934
C          11.61345057898479  -20.79471467053096   10.01857708736410
C          11.47205251250171  -20.67230978963799   11.38951306305157
C          11.42171449917207  -21.81592240554023   12.18163832394466
C          11.51745388447349  -23.09088464326253   11.59974473117208
C          11.64742198919329  -23.21215451701418   10.22010076743849
C          11.47606994731219  -24.31613375856269   12.45498932171905
C          11.26582279450222  -21.67528574895155   13.66140119575259
C          11.72879526038218  -19.78908202321550    8.96773859595809
C          12.12816592821539  -18.49308287151456    9.16124742556005
C          12.45408616254338  -17.60409490651201    8.11861157838573
N          12.75480548824136  -16.85479564162303    7.30209173180836
C          12.35545693486025  -17.92545789343717   10.43314330146954
N          12.55956413591944  -17.41771637677565   11.44161720753706
H           1.20985036179142   -0.63016416309537   -6.95503574680058
H           1.25220589052864    0.00323174260718   -9.15162959352038
H           1.50106099447498   -1.29815432694514  -10.32218242919854
H           2.82332118035567   -0.20758648492298   -9.93295362672249
H           4.33324111629940   -2.00951750212617  -10.41091186896742
H           3.01429947643157   -3.12160892919075  -10.74790259745603
H           4.52837432877141   -3.73421715223743  -10.07163333673726
H           4.37231634952597   -4.34904052705734   -7.81713754109821
H           2.09294536796219   -3.12852322294013   -2.08482373596347
H           2.66387961103429   -4.27981418506014   -0.08252932822337
H           5.67260178945681   -9.10713362053824    2.37548639176602
H           8.97337799031907  -12.79806861110150   -3.72328423836651
H           9.22008457095763  -14.44431567938576   -3.06775486989983
H          10.52390284843302  -13.24503118361719   -2.96607180576257
H           7.77535579562085  -13.10743354956280    4.67182911893839
H           9.82075259658331  -18.04777229926901    7.77518875350866
H          11.46973713710034  -20.85128579220482    5.67370269871119
H          11.38539289363138  -19.70234480096620   11.85325286068575
H          11.71730510178274  -24.18357253295973    9.75393895146668
H          10.54358679809469  -24.35963353478246   13.01680616650337
H          12.29309543051936  -24.30761669327408   13.17563509734556
H          11.55803941608483  -25.21318904915198   11.84761172293852
H          11.21232585814912  -20.62824699333081   13.94576089429055
H          12.10755641580077  -22.13371633451507   14.17914981131278
H          10.35951539738750  -22.17625103882507   14.00024703631590
