107
 SCF done       -210.610128361079          0.000688915308
C           3.01730188931330   -3.25897012920983    9.29574316205274
C           2.84996918238043   -1.98882626655326    9.83994203955160
C           1.50122754046210   -1.34574960954499    9.79917115913881
C           3.93527490920792   -1.31607963836180   10.42536957664294
C           3.74875188397837    0.04173447587619   11.02176066922337
C           5.18965393905636   -1.91728380863032   10.44862228785479
C           5.35143412753756   -3.17381600192642    9.90045941315612
C           4.26382732317517   -3.85843717672625    9.32730888707052
C           4.71476668791044   -5.17333632168873    8.88818543580524
C           3.91631517613350   -6.27476175719660    8.72670101311117
C           2.50816043497039   -6.23210801839232    8.76445747421522
N           1.36050737972594   -6.24360385090558    8.76721953217855
C           4.42439063085789   -7.58358861705742    8.59574001065939
N           4.80591547857651   -8.66402846058829    8.52437921078155
C           6.16228438814894   -5.17094503940700    8.96141709046815
C           6.56907368521058   -3.99528628926444    9.79041846538083
O           7.67584034492157   -3.76483176992677   10.21754648710013
C           7.11598259399381   -5.92612299870320    8.35825617520939
C           7.00669924545837   -6.79059128214146    7.24169974583836
C           7.93253936128507   -7.75270146077079    6.86835627675670
C           7.56916392113654   -8.41198946189736    5.69839312004272
C           6.36848468255299   -7.91739928441977    5.14841514794384
S           5.69237826903639   -6.65998389449734    6.07523722169940
C           6.07499774161951   -8.64196758615022    3.97444486624903
C           7.08528770231915   -9.60642606209136    3.77227117569706
C           8.07476900801390   -9.46568802425123    4.83378149381592
C           9.25530348340695  -10.13445516217527    4.95698939107219
C           9.72181521864770  -11.05589016999238    3.99272659061088
N          10.14817545872216  -11.76471791788978    3.19999204963553
C          10.13595651468919   -9.89959124744225    6.03566089466830
N          10.85561235697560   -9.71075666203955    6.90766042882765
C           6.85423340465311  -10.41457668012775    2.66706443539384
C           5.67756024443376  -10.06157831545885    2.01277848359386
S           4.85640379165064   -8.70971804668969    2.78232479343300
C           5.12565898314708  -10.68168675973111    0.87758052334064
C           5.56594628498566  -11.85685931417675    0.25043501659005
C           4.75795565078343  -12.22743943567252   -0.88041694660174
N           5.07929408572525  -13.27637181041256   -1.64040687791388
C           6.12160522262501  -13.98680542445107   -1.27163227674203
C           6.53527796418633  -15.09845681564132   -2.16822803420662
O           6.03754151357810  -15.27535963457755   -3.25792930027803
C           7.62473002213430  -15.94268332971642   -1.64534803592992
C           8.25497246994190  -15.70938994182956   -0.48975353619974
C           7.92482407027998  -14.59123699343487    0.41296032522777
O           8.46429989004004  -14.43801663580289    1.48582942476596
C           6.85019450020286  -13.68802145024218   -0.07797076895323
N           6.58493202698964  -12.62344778865966    0.64571001209749
C           3.67925454065619  -11.35624940352101   -1.09527852202922
S           3.71379984239007  -10.07295838682318    0.07139636906455
C           2.67303879221236  -11.47783949993245   -2.07045305909836
C           2.44531301034732  -12.57947026785722   -2.88897100590050
C           1.33673757800552  -12.38991383151281   -3.70277413904941
C           0.72891005886160  -11.12763916994568   -3.52932065077942
S           1.50510127568052  -10.18920594254010   -2.33479065467179
C          -0.37822871245431  -11.03116000862469   -4.40154522023744
C          -0.48048209987516  -12.23661204919325   -5.12614872910802
C           0.57014313443870  -13.13907154165179   -4.68844821267824
C           0.72319297102477  -14.44363435112369   -5.05206407474737
C          -0.13965757083350  -15.04260636497566   -5.99537109242332
N          -0.84697570509857  -15.51204013851931   -6.76620291352387
C           1.69601769380101  -15.29428330661301   -4.48240574414246
N           2.45347250070054  -16.01417190754063   -4.01245585267045
C          -1.57976652653744  -12.26230474802195   -5.97545040521181
C          -2.32183227450059  -11.09335170349673   -5.90878137522412
S          -1.61409274020564   -9.92871609403155   -4.79835611843155
C          -3.50205947102106  -10.75467799386877   -6.61327172747834
C          -4.40982636205942  -11.58905264782134   -7.18291916734330
C          -5.35319377237792  -11.04054856712761   -8.20632347077153
O          -5.55858548335637   -9.87079198528241   -8.43378225977188
C          -5.90940290313907  -12.22151099681453   -8.88326131084900
C          -5.45731989124516  -13.38967911010037   -8.24229635109476
C          -5.83078070611810  -14.62757584867893   -8.73501104467648
C          -6.66389700342063  -14.70365935476968   -9.84751271076904
C          -7.12885115092578  -13.53393829045406  -10.47126576199362
C          -6.74031253731769  -12.29049558156587   -9.98368589825516
C          -8.03555909970251  -13.61967705049788  -11.65633952362967
C          -7.06340440914124  -16.04471755269178  -10.37226687383370
C          -4.64953048795332  -13.01633956823046   -7.08626009198863
C          -4.41234610297033  -13.82156418650352   -6.00364435468228
C          -3.84326509857007  -13.38050594102219   -4.79326039128324
N          -3.41448398694003  -13.06841082347616   -3.77461835622241
C          -4.80641005600850  -15.17500442252665   -5.93235436322153
N          -5.10896787519475  -16.27567723271598   -5.81803886210136
H           2.17422880947423   -3.75822080099811    8.84416304878852
H           0.77737798891368   -1.99717642348264    9.31763643301567
H           1.54213994491438   -0.40393636202219    9.25284905111869
H           1.15306984713808   -1.12536830999201   10.80759449887953
H           3.00681825513030    0.01124402957779   11.81896995881016
H           3.39301968615405    0.74486274649752   10.26925682588190
H           4.68345454104865    0.41448483433834   11.43123640340353
H           6.03571003508017   -1.41519929393167   10.89340289091482
H           8.12425862295642   -5.78838709774475    8.73829884187512
H           8.80649363377711   -7.96906817344819    7.45580544933603
H           7.46708737018587  -11.23206830505097    2.33109769118162
H           7.89727360592761  -16.77750473899051   -2.27685756255524
H           9.05484552633993  -16.35092270468078   -0.14527475217470
H           3.07762483051257  -13.44883126853091   -2.86153974749985
H          -1.82156290717577  -13.06985535210482   -6.64225259290512
H          -3.68868149691385   -9.69602657605969   -6.76603523127739
H          -5.47490255559678  -15.53675813875483   -8.27680799911032
H          -7.08312416834873  -11.38021616456390  -10.45240055602823
H          -8.95257094307802  -14.14860176949160  -11.39888572329325
H          -7.55645449510882  -14.16896992965503  -12.46607472626392
H          -8.29578507848586  -12.62784949220686  -12.01529810911580
H          -6.62531301366351  -16.83890847457999   -9.77451394572477
H          -6.73784181148473  -16.16430492290724  -11.40507535438098
H          -8.14714627926124  -16.15378356698240  -10.35487460329549
