97
 SCF done       -176.196394620612          0.000771058617
C          -2.02499094056467   -7.06979390787349   -6.41228375204623
C          -2.53577870974511   -8.16703278043010   -7.10174891004308
C          -3.59281988078506   -7.95159844862739   -8.13775610502441
C          -2.06741058614963   -9.46075557813656   -6.82951712010453
C          -2.61899720942389  -10.63700903871061   -7.57036842846615
C          -1.08416757458857   -9.64635621324591   -5.86251258492644
C          -0.58389797688999   -8.55446185598301   -5.18415187513949
C          -1.04877636768139   -7.25579526024269   -5.44965420894810
C          -0.35144766990492   -6.31483582034057   -4.57446524801018
C          -0.59281400107725   -4.96255854097984   -4.51265565142341
C          -1.53248430653430   -4.29181390116497   -5.32028677239753
N          -2.27902968043669   -3.68351016394333   -5.94689934647088
C           0.02740148626798   -4.05483593037926   -3.63094019504609
N           0.47020827821898   -3.25272375057727   -2.93714458670333
C           0.58500597367294   -7.07191915199768   -3.78123981581132
C           0.44750847892195   -8.50467082851696   -4.13211116453897
O           1.05153758429828   -9.44981014571411   -3.66177296236944
C           1.47642720238774   -6.57128401735581   -2.85620560335276
C           2.33097482069640   -7.34484214389258   -2.07465531952286
C           3.18103456506467   -6.80878299594438   -1.12615841796296
C           4.01216476545006   -7.52962698215143   -0.24080439561019
C           4.69999032917701   -6.74449008311050    0.64011157063508
C           4.45686103341684   -5.36619420260327    0.47659176401738
S           3.33200996465177   -5.08979914507579   -0.82883041731140
C           4.97446612464458   -4.31674577036758    1.22719088276410
C           5.77257262434172   -4.39919148540084    2.38535895394355
C           6.05767375832152   -3.18345601591415    2.93593333205428
C           5.52862081229955   -2.08358070174319    2.22057259001594
S           4.64078806669754   -2.65446685925102    0.82774183921665
C           5.64521969956028   -0.76978353328015    2.63665059861419
C           5.27849766750947    0.41316511976440    1.99461426457327
C           4.95141244402182    0.71685294776848    0.66673676459054
F           4.93933698657075   -0.19017568482811   -0.31436516728343
C           4.70759984117962    2.05819107976179    0.41917408529739
F           4.35390371214635    2.49258677676683   -0.79407198694640
C           4.81111155645481    2.89218262107711    1.53985954567017
S           5.24352533864097    1.90082413599314    2.91816925431578
C           4.61967393057932    4.26024082241637    1.73520801673825
C           4.50880909973124    5.28989443012008    0.81941529088948
C           4.25107455772504    6.63394852267985    1.17970185048474
C           4.26655971286149    7.50872910536322    0.13271012198444
C           4.55863786958215    6.89853464526301   -1.10347843908559
S           4.76751282126867    5.18014977097828   -0.90562418962737
C           4.71329159447601    7.51356980426610   -2.33953764485728
C           4.58149872488687    8.88297312652197   -2.64546082911679
C           4.84827408916426    9.18055183383084   -3.95121184980628
C           5.20859492937390    8.06163418830211   -4.73385322261726
S           5.16635636686803    6.60884678696502   -3.76198862483744
C           5.56280306866171    8.07252232428549   -6.06951259461791
C           5.95017232889759    6.93165216768298   -6.76623805209200
C           6.33981055816101    6.81546836972056   -8.08048695191586
C           7.11051130993279    5.61105829611296   -8.48690254971045
O           7.25527344449531    4.59435009458191   -7.84333808382962
C           7.69342164072096    5.94862405437215   -9.79772578037716
C           7.23423855346452    7.21468030505147  -10.19988836583143
C           7.68979397240968    7.75507720718742  -11.38867311445712
C           8.58666150145739    7.03642589688681  -12.17604387730045
C           9.02725449172895    5.76629098768003  -11.77620354378836
C           8.57465602958568    5.22744428987412  -10.57569645417455
C           9.98164356042230    4.99174434725603  -12.62831938066099
C           9.07692546471363    7.63280911091565  -13.45715519453478
C           6.28561921607446    7.71403487857633   -9.20234250555288
C           5.38946485131472    8.73499722002143   -9.41631553310233
C           4.29899099774416    9.03907079441097   -8.57860186253312
N           3.36926394474076    9.31747933931306   -7.96376906366940
C           5.38773590792479    9.54785708203379  -10.56683639813179
N           5.34750232813111   10.25848708200164  -11.46890301314858
H          -2.40105693865474   -6.08594850908435   -6.64213307847370
H          -3.85086194384205   -6.89878880613531   -8.21139086203977
H          -4.49238930905293   -8.51433187796130   -7.89001432804322
H          -3.24865221487527   -8.29457082326845   -9.11316827295631
H          -2.46370266249719  -10.52212600396166   -8.64268390943384
H          -3.69186259633089  -10.72688703884140   -7.40162677325236
H          -2.13866367614522  -11.55612462817741   -7.24596844707793
H          -0.70922288428848  -10.63365084182409   -5.63666229371189
H           1.51749105674316   -5.49912224242005   -2.70736477187839
H           2.31494700428595   -8.41917329046178   -2.19066705307341
H           4.06723269106754   -8.60311341452323   -0.27403695853872
H           5.37318822270441   -7.12213224196261    1.38851725835041
H           6.09765244661660   -5.33869784027975    2.79381448272524
H           6.63955332183905   -3.04280119019128    3.82958307730052
H           6.06526262679143   -0.63428321565143    3.62603347005630
H           4.58634608236666    4.56436664797012    2.77454115409488
H           4.05898108241346    6.91271284807116    2.20066938703154
H           4.08903020868441    8.56470953720750    0.22490317843871
H           4.29813999363579    9.60974420308583   -1.90576134857103
H           4.79564078474086   10.16704520449013   -4.37581313532176
H           5.56700156850191    9.03509184666628   -6.55864094219082
H           6.05149394315099    6.01541758009641   -6.19041925165245
H           7.37031458663863    8.73211012995079  -11.71496012040398
H           8.90385603562510    4.25313630842479  -10.24647870389166
H          10.90900433682569    5.54673229385738  -12.76761359197610
H           9.55533974948354    4.81102623080012  -13.61459474616309
H          10.21536199985206    4.03446454432829  -12.17047951647103
H           8.63974274049493    8.61437862022930  -13.61779570568857
H           8.81597060975715    6.99410535926582  -14.30032822339583
H          10.16203605522186    7.73175198156129  -13.44299354471564
