101
 SCF done       -198.193919519788          0.000838495532
C          -2.74158040054001   -0.76067230403203   -2.29312717566544
C          -3.19508730265109   -0.49264873848782   -3.58132203266693
C          -4.33089954187216    0.46026750707714   -3.77327173551406
C          -2.59453431008715   -1.10809742454623   -4.69184658038679
C          -3.07716848102288   -0.80910124079187   -6.07432913442806
C          -1.54584006951820   -2.00158385605988   -4.50007158842621
C          -1.10523646140148   -2.26541862910299   -3.21896910918845
C          -1.69217829568666   -1.64443944468032   -2.10394217551882
C          -1.01248070573604   -2.10098287402574   -0.89972067244551
C          -1.19460026320301   -1.59309805269792    0.35970956229721
C          -2.13553472759809   -0.58992749634829    0.67507090314864
N          -2.88423820287189    0.21813474861916    0.99796352841978
C          -0.45314853522854   -1.95498946683217    1.50443481906919
N           0.11615518029761   -2.18260715307163    2.47585152257699
C          -0.04889995954180   -3.11718682130590   -1.29647545294301
C          -0.03439672138172   -3.17649558480348   -2.78328973982062
O           0.66656985953393   -3.85817008424581   -3.49978144592219
C           0.57134670844114   -3.95752388180906   -0.41862277225362
C           1.55790149829263   -4.94549363400413   -0.62853087091924
C           2.40413459990562   -5.22064563268051   -1.69411041794112
C           3.26069964515572   -6.28113417564978   -1.42141860571854
C           3.06467709502218   -6.83328338079320   -0.13670383380881
S           1.85400128216277   -6.02770262248811    0.73934122604590
C           3.96081572391894   -7.91531661293840    0.03090660704338
C           4.73474962615630   -8.04618847881446   -1.13558469622802
C           4.32686544040158   -7.01839152335123   -2.08326113724942
C           4.85353448943768   -6.79349717728521   -3.31997258051801
C           5.89026702028090   -7.59417222118532   -3.84766997844175
N           6.73122074910669   -8.23785459016500   -4.28688239633668
C           4.42688237047230   -5.74255449014777   -4.16167647202626
N           4.11673059713952   -4.89040826094912   -4.86230893522240
C           5.65492912605850   -9.09076384931516   -1.05958468869691
C           5.58199409821848   -9.76121005282986    0.14769834810377
S           4.35712860561421   -9.08052542689392    1.21028068001214
C           6.35593598294372  -10.88365259092700    0.57900697400436
C           6.11027771820140  -11.52685405239041    1.78287097049536
C           6.85459959377419  -12.62108194254219    2.20238828640218
F           6.50319403869811  -13.16003585082208    3.38926194415363
C           7.91372286841201  -13.18429646174881    1.49587102073978
C           8.19178344756025  -12.53925835998094    0.25686624323405
C           7.42303140893757  -11.40985270628830   -0.19974043818836
N           7.85064832244515  -10.96908762728108   -1.38097188729651
S           9.08280095061463  -11.87061486744611   -1.87220591615942
N           9.14140244029789  -12.86755488651466   -0.61703093726691
C           8.66490099694835  -14.31275726648809    1.95361409175103
C           9.76455285624271  -14.88344900676849    1.33198609959807
C          10.25414035419550  -15.97808401843526    2.03796078415077
C           9.51792212995680  -16.24596148271106    3.20689992922439
S           8.23860638479536  -15.14842298587708    3.43967503249815
C          10.08325779108575  -17.37702684978421    3.84317707431981
C          11.17704017596440  -17.82888439363676    3.07912356448960
C          11.32218862451876  -16.96007043670790    1.92182388912839
C          12.25658551391587  -17.04685268093750    0.93264732091093
C          13.24321900590811  -18.05589698543044    0.91849447243167
N          14.04314883553564  -18.87696320958850    0.89673822795847
C          12.29472847987353  -16.13962226862852   -0.14788659596931
N          12.33101983184937  -15.40822870431511   -1.03001812648950
C          11.77800760611681  -18.96128968300597    3.62104837486818
C          11.17867739686862  -19.36080225043412    4.80527460104559
S           9.81219467324997  -18.32900507761418    5.22520462579817
C          11.50175717933671  -20.52044557815710    5.55089871772681
C          11.13950414729788  -20.85610345631341    6.81601163386736
C          11.12898739211111  -22.29319026119165    7.22502955822242
O          11.67064690291016  -23.20989061468006    6.65311714161682
C          10.26285460827411  -22.33633721881156    8.41656777855764
C           9.91788573457157  -21.02719616156769    8.79973705653030
C           9.08305738653491  -20.82778057506057    9.88460968196634
C           8.59535217296708  -21.92507492088203   10.58852296329746
C           8.95061623570043  -23.22979570936858   10.20870610408527
C           9.78837524824214  -23.42788436368749    9.11568002881924
C           8.43108811347381  -24.40556095677075   10.97175161813856
C           7.68820080084497  -21.70276832636079   11.75568628318901
C          10.59039801681874  -20.08565434260372    7.91342245617209
C          10.89056236609702  -18.78290976547934    8.21248164114628
C          11.77902824274881  -18.00358235062836    7.44345332674594
N          12.52166949307433  -17.35750975297080    6.85266114860255
C          10.41893406308125  -18.11599845219505    9.36071259114098
N          10.04638646592716  -17.52845682969762   10.27364936031340
H          -3.22143661805430   -0.27926218466834   -1.45616876954252
H          -4.68271086240704    0.83890917255618   -2.81767498487027
H          -5.16063285833789   -0.03025065514647   -4.28113134479751
H          -4.02157896655581    1.30401422043174   -4.38913117227293
H          -4.13066646314549   -1.06742686565791   -6.17691795177036
H          -2.50817212010818   -1.36977220183050   -6.81061549772090
H          -2.97753388228187    0.25373100123097   -6.29236657426518
H          -1.07108953678866   -2.48918047771295   -5.33833724933330
H           0.25235830526525   -3.89220461730661    0.61574673327183
H           2.37271219100723   -4.66792923387852   -2.61538120885073
H           6.35294287645713   -9.37384255702579   -1.82570111760680
H           5.31581215762948  -11.18727369047716    2.43012506101082
H          10.16234358112544  -14.49820111302702    0.41161939811727
H          12.62571905257672  -19.47325177517120    3.20255324111176
H          12.03578933217444  -21.28953545613177    5.00050798044901
H           8.79337151717178  -19.83263676637170   10.18432200739952
H          10.07215171842517  -24.42365501390198    8.80958083322863
H           7.34164841252125  -24.41766508720608   10.96126092217350
H           8.74865671073783  -24.35721018358793   12.01281939840248
H           8.79308933379042  -25.33496513724603   10.54109411614965
H           7.51967844271474  -20.64168097821420   11.91662773046430
H           8.12041626553914  -22.12708813858136   12.66110334826503
H           6.72673967474610  -22.18849304931431   11.59184341384771
