89
 SCF done       -159.884273773183          0.000423112915
C           3.45285917237797    0.19670075447238    1.11457972005567
C           4.53846013530745    0.93853917655771    0.65789577970831
C           4.70099372187599    2.35371359202331    1.11245330911815
C           5.47420201130803    0.36669987157835   -0.21876699254548
C           6.63709809229532    1.16758754749850   -0.71028962473800
C           5.31718409981046   -0.95354915320857   -0.62779489305972
C           4.23995949821478   -1.68389765070859   -0.16825816209771
C           3.29630114621618   -1.11636516426208    0.70419107037634
C           2.28062059286184   -2.11444914951692    1.01235074588182
C           1.12131959131882   -1.89408664145963    1.70956034925343
C           0.77459001606734   -0.65667190793481    2.28987681967181
N           0.44305241268642    0.32368604578687    2.78721667796700
C           0.10305842171100   -2.85125445686004    1.90186232537275
N          -0.77978195475650   -3.56504972624240    2.07544737959151
C           2.67372707258475   -3.35580091757952    0.37081532657821
C           3.87950535497655   -3.08337022386152   -0.45934330575721
O           4.47550030763161   -3.84557796459311   -1.18995590102343
C           2.17419972070360   -4.59171893775633    0.66763686853509
C           2.50894119257478   -5.83797419128124    0.08629707839920
C           2.77318875614181   -6.04267560079269   -1.25001152283940
C           3.08973866070728   -7.37235246839474   -1.62320908782975
C           3.06877302762034   -8.29662937125052   -0.59983302035882
Si          2.59035425053604   -7.48509797811430    1.01684127864932
C           3.35243884122290   -9.67434447808092   -0.72590118702299
C           3.25729948676495  -10.46592926388678    0.44387031055638
C           3.50440344132933  -11.88339998820434    0.43955128941219
N           3.42011994615132  -12.57424257411660    1.57794564243361
C           3.10063395555747  -11.95911985244737    2.69345738487028
C           2.83249821100875  -10.55162062756237    2.69371678146841
N           2.92020651324666   -9.85721686533771    1.58244201669133
C           2.48023697754885   -9.89373278682931    3.89728691745337
N           2.20634159491464   -9.39159930323362    4.88961719342806
C           3.02987584061588  -12.69745651741911    3.89964454220867
N           2.97020186671037  -13.26183945364196    4.89450082913501
C           3.84405411215156  -12.59196178265898   -0.73726147276135
C           3.94810514467788  -11.80511932762285   -1.91152747146834
C           3.70886278143999  -10.37606544833524   -1.90568471943984
N           3.86123584616548   -9.85016745610698   -3.11902323666869
S           4.25979112053726  -11.00959710771951   -4.15604907120142
N           4.26440191801611  -12.24347591589773   -3.12820134441168
C           4.02320226330984  -13.98684063717484   -0.61775422009717
C           4.38012227372258  -14.84307964314073   -1.63506190194814
C           4.41402786913339  -16.21505864330484   -1.28226136551975
C           4.07940539499154  -16.51777279517459    0.01454620158418
Si          3.75910795122615  -14.91516103427853    0.98428257395237
C           4.03067050354964  -17.83431997022479    0.53373162676130
C           3.54850286124796  -18.96301495004079   -0.05320098088136
C           3.89063094141369  -20.29895820619121    0.51007219437993
O           4.37898732426272  -20.52097098571966    1.59461131856289
C           3.56168478139241  -21.25743031329777   -0.55988178200585
C           2.94620649599298  -20.57925790585101   -1.62794899051152
C           2.57318323458887  -21.28545448963328   -2.75840369392338
C           2.80008895047844  -22.65736663554235   -2.82176262678573
C           3.40265602472655  -23.33036453854161   -1.74689438653793
C           3.78623760237908  -22.61785740458038   -0.61513238121549
C           3.63388221165653  -24.80581815819667   -1.81279852987893
C           2.39280371365785  -23.41148182603543   -4.04691425095393
C           2.79733445749390  -19.17147388083898   -1.27294999112020
C           1.92991200884319  -18.28905422884326   -1.86322321497514
C           1.61794409216355  -17.01862048465830   -1.34142265329452
N           1.27499669157001  -15.99466594346332   -0.95005494518739
C           1.18301209482621  -18.58175459275865   -3.02206234477159
N           0.57215314506974  -18.76271453437500   -3.97736099066766
H           2.74972732540384    0.65474595620336    1.79174374486538
H           3.89555048349231    2.63774028693952    1.78391912663986
H           4.69887197042939    3.03216228188735    0.26001899795001
H           5.64994264538964    2.48199917728414    1.63223707898266
H           7.25162573903923    1.50165363605556    0.12529218644238
H           6.29476698083886    2.05528961931763   -1.24125796320068
H           7.25496086295143    0.57749730154420   -1.38155485772120
H           6.02627170829583   -1.41337844878531   -1.30005630326590
H           1.50058186281753   -4.66358607448129    1.51482029085953
H           2.69703329367959   -5.26707903260801   -1.99520911246231
H           3.32560578526410   -7.63216354014763   -2.64330554742212
H           3.64103776173720   -7.37439380683090    2.02644915527486
H           1.24727219588638   -7.79396811022626    1.49652811154563
H           4.60651432238488  -14.50894007087041   -2.63545362026628
H           4.72386524061078  -16.96344621097480   -1.99986083281113
H           4.87177886079705  -14.78006140163646    1.92507481949408
H           2.41856290316719  -14.99119133672225    1.54366019902296
H           4.43758925052154  -17.97507110360431    1.53128122608310
H           2.11537027882555  -20.78652098408442   -3.59805619356755
H           4.25254924052268  -23.11665078464207    0.22128603350856
H           4.27045417840331  -25.05656540769262   -2.66075078878741
H           2.69076950659289  -25.33570844508643   -1.94239657329124
H           4.11001607171709  -25.16188435473272   -0.90347201867829
H           1.93850054222037  -22.74646473634427   -4.77604636234506
H           1.67563708962953  -24.19149030497157   -3.79402202515164
H           3.25581811373555  -23.89443903401435   -4.50424005845434
