111
 SCF done       -196.125425662975          0.000383695550
C          -0.14216117132922    0.83504923187749   -1.37275803763423
C           0.24392812077589    1.81534281435759   -2.28269876500919
C          -0.43158642449919    3.14938267760711   -2.25109533838713
C           1.25600002729374    1.55951021736087   -3.22054855778034
C           1.66565245062220    2.61349338852919   -4.19910201019007
C           1.88149001372851    0.31738979416571   -3.23411380767101
C           1.49605383603885   -0.64628481948927   -2.32483438021203
C           0.47928635739515   -0.40221269630329   -1.38932969666943
C           0.28935647470096   -1.60233416516825   -0.58184246036232
C          -0.71170000267206   -1.77607105907437    0.33935294579775
C          -1.65985484922521   -0.78420126695915    0.66684663867924
N          -2.45891694674840   -0.02349088448758    0.98597064301740
C          -0.98504479219698   -2.95402108188858    1.06607474932410
N          -1.29782508784613   -3.87017128419894    1.68517071322690
C           1.29832867627509   -2.56990002285223   -0.98356603520144
C           2.02307399791841   -2.01048169433074   -2.14828808043170
O           2.88112334709659   -2.52914522913519   -2.83660551186662
C           1.54907740746918   -3.72334717248695   -0.28582351033238
C           2.47113340036848   -4.76221266450838   -0.49454794210224
C           3.36357267293379   -5.04384232361466   -1.52734848034495
C           4.09459109310868   -6.19046872274162   -1.29465488486981
C           3.77439023200463   -6.81342491056108   -0.07839903693878
S           2.55303068209039   -5.98794574313046    0.77936782999428
C           4.59445771744568   -7.95098740149332    0.08304151770842
C           5.43960649290846   -8.06436211086832   -1.02491002198311
C           5.18035176402728   -6.95436595319763   -2.01587659345080
C           6.42428631997664   -6.08778458621385   -2.22750088890941
C           4.67284063411379   -7.50618861218591   -3.35137761917232
C           6.30545140718011   -9.14113451744476   -0.92879600522370
C           6.13010197570520   -9.85432478960852    0.24996164758610
S           4.85808148623868   -9.17891161825672    1.24632627336662
C           6.89344869594726  -10.98550013829655    0.67179241728589
C           6.68643714825020  -11.66680050926426    1.86706994607187
F           5.68668491488292  -11.28363738642025    2.68334313248462
C           7.46831976575271  -12.74161212986431    2.30215111790297
F           7.13809471634877  -13.28177607344333    3.49028146734790
C           8.55170706640651  -13.25276596539895    1.59485969313795
C           8.77430884964541  -12.59669553220121    0.35584042928008
C           7.97110065781768  -11.50503936743736   -0.09242223813913
N           8.44658597382842  -11.13016265906016   -1.28835013588262
N           9.44313648240702  -11.94039274076998   -1.51520539724316
N           9.69428137157293  -12.82566854917080   -0.59119915097711
C          10.22312962464527  -11.85760835393037   -2.71160540555173
C           9.38673412519902  -14.31414876703775    2.05911118810931
C          10.52464191376879  -14.79607017222026    1.42534084738246
C          11.14085368312257  -15.80371825992674    2.14827132155123
C          10.46926545315796  -16.10401664682685    3.33690271291485
S           9.07546171722798  -15.13944754431345    3.57215340622799
C          11.17114773041163  -17.12450850703356    4.01465678302159
C          12.30282512902724  -17.47271122493107    3.26542339894760
C          12.37240645727900  -16.66399191539153    1.99225264296799
C          13.64311896060765  -15.81332239339817    1.92496356454956
C          12.26133338137302  -17.57716600652724    0.76745644115672
C          13.04312203263712  -18.48134572041769    3.84811843293011
C          12.49110430913470  -18.92489580801634    5.04873969314104
S          11.03400822278678  -18.02834605816181    5.45626117348766
C          12.95877161091818  -19.89103865157908    5.95779052432126
C          13.91096167197360  -20.85649783576510    5.79631038566312
C          14.55079155099497  -21.43445790150340    7.01114388056452
O          14.17005580969705  -21.31571221293646    8.15423224274786
C          15.75803707729121  -22.12224036464323    6.51883500763779
C          15.77957226356721  -22.08324239110903    5.11391108414844
C          16.84502315740689  -22.64435979883551    4.43289817026024
C          17.87933649079953  -23.24590464104471    5.14515960059102
C          17.84490091852031  -23.29384990897229    6.54716421052580
C          16.77477350486764  -22.72450404175991    7.23053229656433
C          18.95096368972223  -23.95090495964730    7.30940447014757
C          19.03042541732600  -23.84430083486185    4.40101539243182
C          14.56213459377445  -21.42731899468811    4.64161967946305
C          14.03488112327400  -21.56260795420726    3.38110656043798
C          12.73633647771064  -21.15310175862885    3.02190594497114
N          11.67830712438200  -20.86508136250646    2.68090815017091
C          14.70267348595971  -22.19361292742153    2.31374610088517
N          15.21095691943956  -22.66549333749958    1.39814245891978
H          -0.91999281205008    1.05916430268815   -0.66090860235552
H          -1.18961646723417    3.17916257453085   -1.47335528446250
H          -0.90692668113058    3.36062849628020   -3.20841173448200
H           0.29310153060838    3.94083534249218   -2.06198595642453
H           0.81838272166564    2.91650646392645   -4.81343259245426
H           2.45430360643297    2.24774033098970   -4.85098713548793
H           2.02727338391313    3.49973346305812   -3.67836638389458
H           2.66446270311162    0.09825842490017   -3.94491465282757
H           0.95903461407420   -3.86367956458402    0.61268768753939
H           3.45162024418761   -4.40872144133199   -2.38919172496017
H           6.78742174523242   -5.70842943471725   -1.27507448846223
H           6.18325759547870   -5.24429651322644   -2.86915011024780
H           7.21252880913341   -6.67408622621464   -2.69315283958298
H           3.78717566146610   -8.11806032663167   -3.19599942936540
H           5.44127258272764   -8.11704107291546   -3.81858850374799
H           4.41793903598272   -6.68634124559783   -4.01789893762109
H           7.04595574128199   -9.42293182582813   -1.65305217954482
H           9.72019609756988  -11.18143000929232   -3.39840981388726
H          10.31690352639862  -12.84871937803443   -3.15405827090209
H          11.22051361100785  -11.47808298640232   -2.48379656434065
H          10.85667480942745  -14.39954271488126    0.48463694078634
H          13.71630471465811  -15.17100915548660    2.79981817790624
H          13.62585150526008  -15.18977282088762    1.03473527040895
H          14.52051199707708  -16.45429821561178    1.88788947057480
H          11.38134358572402  -18.21028517412706    0.84861961730959
H          13.13760227079243  -18.21683557151445    0.69761677773446
H          12.18571005371107  -16.98012715208920   -0.13781900940512
H          13.97123549551370  -18.86050460823736    3.46013507894555
H          12.56366373064634  -19.81906821759700    6.96713649529131
H          16.89414921849188  -22.61369962035486    3.35560832199501
H          16.73004457815316  -22.74963314300810    8.30906782443920
H          19.90462650661087  -23.47049916176283    7.09267191985053
H          19.03986630910956  -24.99967888924231    7.02779886453121
H          18.76808647385203  -23.89299111945195    8.37884006263667
H          18.90313873310601  -23.72061024758846    3.32912147503404
H          19.11458229443581  -24.90816046816722    4.62001211391344
H          19.96639188950472  -23.37238758081400    4.69865917860749
