97
 SCF done       -195.683571211527          0.000558437779
C          -1.74495801806571   -5.42389929452155    5.45736073437447
C          -2.37780679344246   -4.42724214946398    6.19417904772505
C          -2.59015129903970   -4.62244596154967    7.66116343485543
C          -2.81827230805441   -3.24883460593386    5.56904713571447
C          -3.50681345391701   -2.18447350166227    6.36160648019943
C          -2.61132267250669   -3.07371670878225    4.20515789875956
C          -1.97986685448339   -4.06474436412763    3.47992312891389
C          -1.54644398941012   -5.25267539300431    4.09801540893199
C          -0.96828794003816   -6.13080437905123    3.08962447150670
C          -0.80341774005537   -7.48328904971392    3.20163329233517
C          -1.00017268575508   -8.19894367305976    4.40037782706985
N          -1.13223922281598   -8.81830875382375    5.35751066742317
C          -0.49057872130722   -8.32376054334585    2.11371448643599
N          -0.28655966673270   -9.04857592266413    1.24728507811418
C          -0.83699341675954   -5.34731127077569    1.87411711316626
C          -1.64408888471082   -4.09869070312704    2.04802695668841
O          -1.90914737960007   -3.28857944136343    1.19116890812762
C          -0.08025421722438   -5.50181319317512    0.76779146837174
C           0.99954892728098   -6.42151799408286    0.53135029608958
C           1.26551538815278   -6.90091212032486   -0.74953766751945
C           2.33395074507755   -7.78241093385775   -1.04488780792981
N           2.37611487682481   -8.18685304072846   -2.34558329669521
C           1.43961925410140   -7.66895320711393   -3.03394127463635
S           0.34453580458594   -6.60288527024728   -2.18724128267786
C           3.22143699408649   -8.20030696825290   -0.04306444589290
C           2.96473445942754   -7.72439874539535    1.23714005646252
C           1.88808945258361   -6.84881218675987    1.53365243436838
N           1.83685654486036   -6.44928882566842    2.83453630664139
C           2.78470503354655   -6.95862716432519    3.52312763256242
S           3.88477903447097   -8.00839129479140    2.68094464254472
C           4.34018925628538   -9.06842015466510   -0.38482789512014
C           4.64441705866704  -10.23645628990333    0.32473587596813
C           5.69966163623546  -11.12129032284000   -0.08919018827657
N           5.99021086642247  -12.21217844902453    0.66157071377774
C           5.25834838821486  -12.47341088242194    1.68570186190204
C           4.15965896069678  -11.63544119964669    2.05524927754297
N           3.88873468157368  -10.55800909450431    1.40598613863847
F           3.40685290577511  -11.93732412879078    3.10704321446157
F           5.56108289450839  -13.53921166830943    2.41936947544601
C           6.45825968815699  -10.87805716948627   -1.24204920334231
C           6.17954702740049   -9.69372951655700   -1.93766435918114
C           5.13603302633278   -8.79079527968192   -1.50489411366152
N           5.05627525733755   -7.71450063799914   -2.29595609008196
S           6.12838793250491   -7.85243897070614   -3.46862402546449
N           6.77798382722197   -9.25392552126305   -3.05217524383016
C           7.44719499055142  -11.83735606033546   -1.71346948498610
C           8.72406571055264  -11.48159419416780   -2.13222544458307
C           9.67975655967761  -12.42454410234786   -2.59112463941384
N          10.86890619571611  -11.87539380265248   -2.96284570018733
C          10.88669106992450  -10.61199236723812   -2.77534688522167
S           9.43725483069828   -9.89850164226011   -2.13584644135231
C           9.37816227481716  -13.79726748876184   -2.64882523018354
C           8.08423697307040  -14.14159636912597   -2.25636465001810
C           7.13324713241742  -13.20149394137964   -1.78957193290481
N           5.92069468079672  -13.74282987778671   -1.48291647255507
C           5.91004207630312  -15.00478527661190   -1.64421286287748
S           7.39206340040441  -15.73032125878932   -2.21986303872656
C          10.27863296758713  -14.79654353925053   -3.15163550265663
C          11.62901848772222  -14.83273537406596   -3.15808541644823
C          12.32049945367084  -15.78245507495246   -4.08783635592808
O          11.81660292522667  -16.71575117037229   -4.66702099847838
C          13.70347274501280  -15.28804303536466   -4.17207743151301
C          13.88490611823996  -14.23258331150983   -3.25950905760018
C          15.11479858636806  -13.60164203552105   -3.18499185392003
C          16.15682427199229  -14.01985496070058   -4.00731514055099
C          15.97090695790557  -15.07850036629970   -4.91160792526893
C          14.73410761688741  -15.70967922964159   -4.98851341803131
C          17.09391822182645  -15.52860715451666   -5.79003705753345
C          17.48163338600815  -13.33238905422017   -3.91957739460230
C          12.65018842925104  -14.02980420538735   -2.51250350404676
C          12.53755402871902  -13.38365589311775   -1.31285790821769
C          11.37574140777422  -13.40942656471235   -0.51500911043005
N          10.46612228197666  -13.42410974246613    0.18454649317716
C          13.58430230432777  -12.65753760415129   -0.70997449972507
N          14.39497007700316  -12.03447626010541   -0.18770682452917
H          -1.40727447556690   -6.31819256347884    5.95695136166004
H          -2.20168783837257   -5.58471042861228    7.98240604653752
H          -3.65158273282061   -4.57817477027216    7.90245613881549
H          -2.09150676715382   -3.83712183250233    8.22839145988016
H          -4.41289694031834   -2.57582350345230    6.82299166272733
H          -3.77551734464093   -1.34473067168173    5.72675840698027
H          -2.86072103223856   -1.82380806655458    7.16131028568300
H          -2.94130933497785   -2.17467125851076    3.70629676441745
H          -0.28540834414266   -4.80653068476933   -0.04205378068354
H           1.29593114968208   -7.86134675619762   -4.07924839387496
H           2.91173747946394   -6.77082726834195    4.57180138593135
H          11.73996656186397  -10.00016682345131   -2.99621253415603
H           5.05388146102738  -15.62114449912228   -1.45081088975544
H           9.79666427862291  -15.63203655166247   -3.65440058541244
H          15.27485850041828  -12.78082189110670   -2.50373668652285
H          14.57115926329059  -16.52559821946808   -5.67676691766924
H          17.93317196390756  -15.87814990088294   -5.18978595318155
H          17.45196722685259  -14.70549449201611   -6.40714968420213
H          16.77311810824838  -16.33694735423612   -6.44094119530160
H          17.46198568446066  -12.55206029563097   -3.16400753264519
H          17.74511757507947  -12.88450973243692   -4.87727111199724
H          18.26509474055862  -14.04461552580828   -3.66367713564137
