111
 SCF done       -202.927518186349          0.000892821750
C          -0.92732983796622    0.20341426726544    1.35898694000791
C          -1.16567219098917    1.09608670459688    0.31770820751435
C          -1.99897163898521    2.31143938607957    0.57278455721816
C          -0.63251360026127    0.86187414922719   -0.95924919985080
C          -0.89510879811980    1.82000215618270   -2.07675579156073
C           0.14609133019972   -0.26891359391422   -1.18115338835783
C           0.38046672264370   -1.14593199757550   -0.14184576719902
C          -0.15531972326615   -0.92430097117239    1.13583047626866
C           0.24881449208411   -2.02027480291973    2.00997890349326
C          -0.18509292600350   -2.18990953284310    3.30001701107891
C          -1.04718929131930   -1.29302832881034    3.96588456615054
N          -1.73827302172429   -0.60801277951570    4.57581648172115
C           0.11040457253507   -3.27338631322949    4.15411633214971
N           0.27466718222390   -4.11392873499773    4.92014603816955
C           1.12325969345980   -2.89681386789545    1.24595263951644
C           1.17202793431698   -2.38743269540932   -0.14534118701758
O           1.73833725240256   -2.85961532547898   -1.11246579271556
C           1.80468729816401   -3.94766780703825    1.80475948354217
C           2.66640534256836   -4.90980836993666    1.25278242220222
C           3.08368736566737   -5.17186787728139   -0.05285134732142
C           3.92835857102798   -6.25798975591904   -0.12741442366493
C           4.17750780938200   -6.85428563865302    1.12189164805698
S           3.36283560557779   -6.06515035763531    2.39690070828579
C           5.02561302966482   -7.96343163145159    0.94460821839521
C           5.32616230401305   -8.08790780599098   -0.42081007691683
C           4.66111263491350   -6.99472076386574   -1.22383984029197
C           5.69541723207361   -6.08908851748441   -1.89906169194099
C           3.68944740935639   -7.56809892718194   -2.25833995914847
C           6.13104713850923   -9.17568859788873   -0.68903787696927
C           6.45724042292154   -9.89351402167244    0.46312278115606
S           5.75726878050709   -9.18633468260905    1.90303078195092
C           7.22423193858496  -11.08446824671688    0.53120428533753
C           7.50087214339451  -11.72398397252182    1.76303532943800
C           8.21761783144526  -12.96537918464105    1.87022025054293
N           8.41986586049351  -13.49105841821259    3.09599878090660
C           7.97334784175658  -12.87766780264937    4.14320216471924
C           7.26709575857975  -11.65518033215952    4.03921242030168
N           7.05229108526113  -11.12104121470562    2.88112511986140
F           6.80942685749161  -11.02343212619131    5.11588876090072
F           8.20478191562212  -13.44280899994282    5.32897727100075
C           8.69825818491680  -13.64764810365963    0.72497011953347
C           8.45381002795980  -12.98987998772413   -0.50435281870473
C           7.74204289618485  -11.73968102894221   -0.61217971790808
N           7.64695263696952  -11.34212544658896   -1.88165219294971
S           8.37049386678916  -12.41402061611177   -2.83461080541231
N           8.84039816726830  -13.44203090572962   -1.69559101563934
C           9.35425453737222  -14.90660797774337    0.74954034719770
C           9.68735280512368  -15.69184092610191    1.85323443418877
C          10.27977833507432  -16.88457323058942    1.49336481823977
C          10.40984420375532  -17.03027827877715    0.10423164108091
S           9.80878753782146  -15.67700595624232   -0.76160431220679
C          10.99282750168115  -18.28287367311719   -0.16605132364130
C          11.23991333175480  -18.94764942412637    1.04548813133247
C          10.81795209228325  -18.09543671472446    2.21803070541292
C           9.73244244843663  -18.77542026596691    3.05603476996198
C          12.02580918295079  -17.72810773296175    3.08584838811770
C          11.82138029078383  -20.18586243573692    0.86960517022007
C          12.02713842820356  -20.49478765859628   -0.47512317116830
S          11.45434489884211  -19.20812751636708   -1.52638294917517
C          12.53277169621515  -21.66831073325666   -1.06471796669687
C          13.24343287562578  -22.69215535732371   -0.50739294979500
C          13.26254397892117  -24.00976890716698   -1.20425026146863
O          12.88995080545278  -24.23298489841631   -2.33420226376834
C          13.77305322340120  -24.96531615386503   -0.20565032676482
C          14.15404496132008  -24.27114828939384    0.95612298377114
C          14.63802045552423  -24.97651726408774    2.04339535614746
C          14.75226834933833  -26.36244764144246    1.97170956851397
C          14.38642397336950  -27.04781962516329    0.80286037298320
C          13.89129246620802  -26.33759590850601   -0.28646110342556
C          14.52483347089698  -28.53445361515119    0.72317799975910
C          15.27390302376429  -27.11667623903897    3.15286423531310
C          13.96808801180936  -22.83925707208745    0.73267409375800
C          14.59407534334292  -21.84424797595813    1.44175501020968
C          14.62159547823813  -20.49371286215531    1.04393765048603
N          14.69853488160408  -19.38751350073186    0.74552167686672
C          15.35014346657309  -22.06954735569275    2.60882523023192
N          15.95271725607197  -22.19072242214649    3.57906310101333
H          -1.34687743649175    0.40920432409356    2.33032338666632
H          -2.32529259161833    2.34474530477664    1.60849326043407
H          -2.87929654475506    2.31313112058918   -0.06920366726452
H          -1.43248895660235    3.21657036157866    0.35626383542566
H          -0.50979084114626    2.80924907390314   -1.83112658833923
H          -1.96566035846401    1.91923634695289   -2.25323853713075
H          -0.42137986517438    1.48087729483095   -2.99395952183058
H           0.56857603504490   -0.46932097009909   -2.15461317837537
H           1.67361934247889   -4.07263591916509    2.87342129782338
H           2.75964710272619   -4.57013694910492   -0.88184693311544
H           6.38548225143569   -5.68681771261533   -1.16091041041636
H           5.19472520516153   -5.26181590216911   -2.39538475586386
H           6.26166975690904   -6.65407016515192   -2.63505746392062
H           2.95684569539821   -8.21024144694807   -1.77483759231903
H           4.23348953090718   -8.15283240311069   -2.99569707326852
H           3.16622489953567   -6.76013548705081   -2.76308132392314
H           6.48387247483714   -9.47626453814843   -1.65768820031329
H           9.48454746879575  -15.37209429923862    2.85669267334505
H           8.87933435708781  -19.03584604218014    2.43343305812041
H           9.39818497793313  -18.10514628412687    3.84347383840827
H          10.12388004776345  -19.68241607483109    3.50999340580855
H          12.80823887787559  -17.28453324601055    2.47509742249990
H          12.42696048837549  -18.61792502051430    3.56447805787418
H          11.72993479492130  -17.01726825247719    3.85293901753764
H          12.05132325641472  -20.87247728172176    1.66431354690083
H          12.25916864232766  -21.82921921913227   -2.10367091997506
H          14.92057697227642  -24.47037204619157    2.95317051672753
H          13.60210688811057  -26.84635636784461   -1.19387256789556
H          13.92622333871318  -29.01749856867444    1.49491725347108
H          15.56158692591415  -28.83133457294545    0.87809900898069
H          14.20027097151227  -28.89977797271417   -0.24716751896877
H          15.49531259589542  -26.44164529412792    3.97485008348794
H          16.18487799534919  -27.65343584198915    2.89010645634855
H          14.54499028068208  -27.85250491420687    3.49097126994976
