85
 SCF done       -192.407296159556          0.000787771909
C          -5.97733323679779    6.16928529451879   -7.80318530757325
C          -6.57786319502601    5.30904480028001   -6.92341974532353
C          -7.13953399490431    5.76988953716606   -5.71702902632467
N          -7.57879180343334    6.19713141269346   -4.74942257543510
C          -6.54418879702437    3.96062205392701   -7.39121145192787
C          -5.90532140053592    3.88444347303017   -8.62296801532252
S          -5.35389178298777    5.40534984274093   -9.21314292462059
S          -5.79443799135291    2.29091703902877   -9.30137084017110
C          -6.62516093937049    1.70182786194644   -7.89996003522208
C          -6.97098389318301    2.66943117509128   -6.96385233999743
C          -7.64555931278998    2.09468873615203   -5.85064894734496
C          -8.11652774026819    2.82094868787799   -4.74689745635665
N          -8.50752244095845    3.40083087561700   -3.83738302433001
C          -7.78876124918122    0.71788564529930   -5.96898482172702
S          -7.09739340832955    0.10662177717934   -7.45987366609738
C          -8.38563834681919   -0.20452040829991   -5.06860883292768
C          -8.44308326146600   -1.57817664686580   -5.24161576771371
C          -9.08029588388858   -2.21358540319716   -4.17961735009286
C          -9.51248531081609   -1.31074059374234   -3.18945644254750
S          -9.13568378517805    0.31214316411033   -3.56518718700504
C         -10.12868946342299   -2.04491129949781   -2.15015574473444
C         -10.08971259240481   -3.41645314789888   -2.47847047544496
C          -9.40368097771951   -3.56599204699978   -3.75468313608817
C          -9.06750871292155   -4.72535813534274   -4.38684409991198
C          -8.39412944104741   -4.72388657273957   -5.62769340740295
N          -7.85005867883655   -4.72375234548990   -6.63703403949815
C          -9.30496624437104   -6.00347251904277   -3.83379179427143
N          -9.43774689326687   -7.05102829220094   -3.38905309319855
C         -10.69051117877033   -4.22467886577077   -1.52202350069147
C         -11.16991934825144   -3.47797656813567   -0.45048923625276
S         -10.88097543280330   -1.75349814890157   -0.64714395608784
C         -11.79388152298412   -3.98472577349838    0.70401231786789
C         -12.17764699169843   -5.31268738249447    0.94095427949602
C         -12.72411184180221   -5.50165260867546    2.25567451712929
N         -13.12098034790355   -6.69756358081973    2.68714287166901
C         -13.02624917297629   -7.69809819200526    1.83791150496664
C         -13.44529148564682   -9.03814269641704    2.31952498128603
O         -13.87332566884228   -9.22428787006823    3.43870408118394
C         -13.29467497106693  -10.12552561999764    1.33716307972058
C         -12.87914206922007   -9.93666608633251    0.08053975119482
C         -12.53048878527500   -8.61684690360402   -0.47611876711406
O         -12.28161676509461   -8.45027768915493   -1.64969699449040
C         -12.54007056400492   -7.50136683402174    0.50610321910650
N         -12.11111475703236   -6.33247799505145    0.08167446131845
C         -12.78502744918317   -4.32659520156895    3.01255425648460
S         -12.16283159279280   -2.99667234686350    2.09000585631462
C         -13.25564486421768   -4.24378498249854    4.33315000608542
C         -13.38022870305014   -3.11284964298232    5.13088802263772
C         -13.85569312950503   -3.43374028650432    6.39521726894690
C         -14.08571632980600   -4.81721523482152    6.55845427350964
S         -13.73984084897569   -5.72289020735973    5.15195054818643
C         -14.53593672426030   -5.03731347109133    7.88397911752301
C         -14.59910574627294   -3.79950373427812    8.55233846167883
C         -14.18135913168192   -2.75104463118403    7.63738052186877
C         -14.11151387054538   -1.41239641009151    7.88946161991425
C         -13.68750504089461   -0.48682066925960    6.91263562750708
N         -13.34382804911862    0.26291453989414    6.11622592375142
C         -14.46100615616914   -0.86731364430368    9.14293305569681
N         -14.74483088989898   -0.42550719110270   10.16220257007348
C         -15.01593509000785   -3.92182422701021    9.87429234250830
C         -15.26242683767174   -5.24088721648017   10.22082053148854
S         -14.98344753265738   -6.34696958895318    8.88302269708735
C         -15.68335626341078   -5.68984488101097   11.50143756939211
C         -15.87889698083040   -6.98613636343520   11.96029973600930
C         -15.67769903761763   -8.12076288602212   11.15994751749379
N         -15.50614724335601   -9.04110058215230   10.49715197641022
C         -16.29062702309959   -7.02568197805805   13.32185213120218
C         -16.39880498197826   -5.74630561674693   13.85458325943397
S         -16.00870387578436   -4.49339918394254   12.74173419928125
S         -16.89364383514460   -5.67368875730157   15.51306019167421
C         -16.95915663653730   -7.40788578150417   15.50636145406913
C         -16.62118761034715   -8.00890154913639   14.29979473354765
C         -16.70396009292199   -9.43030062621074   14.40456006020564
C         -16.43310474199887  -10.36959430658642   13.39076022429195
N         -16.22351152963153  -11.17607783054645   12.60529322808372
C         -17.09207664365772   -9.82786675100046   15.65592807269237
S         -17.37120499374964   -8.52782963844976   16.74781328786774
H          -5.87021419124144    7.23008001105442   -7.68741275098081
H          -8.03365836922886   -2.07369903061584   -6.10391644355252
H         -10.79819384629140   -5.29394501321309   -1.56295859229551
H         -13.56096507681960  -11.10887179378172    1.70071445951829
H         -12.79815143559785  -10.76056556983472   -0.61555337066844
H         -13.12954715291422   -2.12633956289573    4.78386872583368
H         -15.13223119242786   -3.10544159995455   10.56485235279472
H         -17.22858757735449  -10.83704771247278   15.99216421529603
