93
 SCF done       -191.931358704678          0.000736517491
C          -0.24577747396397    1.71822086758090    0.61184855863533
C          -0.59392289785463    2.34105189589211    1.96659797469464
C           0.75189672515393    0.56483221849218    0.75142004857197
C           0.16773694352234    2.75114269951594   -0.42205674459928
C          -0.77389644226956    2.73031620133701   -1.42620533379838
C          -1.76424287265946    1.73597214021809   -1.09031748798840
C          -2.87528752090595    1.37175216787189   -1.80215178224101
C          -3.22368044729327    1.95367332608683   -3.03490088271660
N          -3.55119521636277    2.39453735525809   -4.04171001140503
C          -3.74051287756260    0.36789952043354   -1.31933231829640
N          -4.44773750742159   -0.44643602892781   -0.93046881619193
O          -1.45702051633051    1.16138500533998    0.07817943365153
C          -0.79503534530333    3.51813326693831   -2.58592874545898
N          -0.77457100861243    4.18137959875172   -3.52200765651532
C           1.31838802069062    3.56330139169594   -0.33306504086235
C           2.29227183990788    3.56193706523262    0.65973497823344
C           3.29622046418326    4.48859457894819    0.41832353704059
C           3.09243193910711    5.21692800336908   -0.77392995638913
S           1.67148408621604    4.75506649304305   -1.59056305393595
C           4.16423090291906    6.12198254398206   -0.93211566089787
C           5.05309391256065    5.97126037649984    0.15491146637453
C           4.54596931068654    4.91928758785563    1.02442362093335
C           5.13687549505565    4.39581998882685    2.13551565953139
C           6.41681557615867    4.78618308101427    2.58850993598955
N           7.47098362296181    5.04853534563699    2.95201589813193
C           4.51080717109194    3.36948636364850    2.87538581196585
N           3.98070019695855    2.53868150540002    3.46151627584802
C           6.13416659153940    6.84024821369921    0.10160063254507
C           6.08631887419477    7.64548610912450   -1.03300108294457
S           4.67772730469264    7.31979727234928   -2.03415596955938
C           7.02979530016358    8.62145016655805   -1.40214733676812
C           8.13322060057097    9.05540640611147   -0.65101121555310
C           8.92610583312907   10.04085812881040   -1.33303172888472
N          10.06347346041506   10.49441259958781   -0.80125584336163
C          10.38384923077485   10.05403943786441    0.39437023925991
C          11.70035506049710   10.47758753480205    0.94504693941770
O          12.51910294419959   11.07223137846753    0.28171640071813
C          11.94331518446386   10.07708838429369    2.34329018379552
C          11.09823963143265    9.32790824016899    3.05879339362974
C           9.81002969324912    8.82767583674770    2.54491009439241
O           9.02651425421044    8.21030191152181    3.22989147946641
C           9.52489528924536    9.17697880300719    1.12624566290303
N           8.43752823998112    8.66992997657381    0.59067938212045
C           8.40289064584101   10.39595761070140   -2.58647013356357
S           6.97135332076948    9.47180516859849   -2.91352643138450
C           8.92305083996097   11.35206829510666   -3.47715682105799
C           9.98295790449901   12.21914166410211   -3.22806389315181
C          10.23399295865022   13.04528808560566   -4.31469733425929
C           9.37541153068361   12.79878052660243   -5.40790139423111
S           8.23842427214826   11.56588060744840   -5.08270818793696
C           9.73299422213187   13.66117063878032   -6.46384972542599
C          10.82209056589005   14.45984949305425   -6.05310499544140
C          11.14333603612384   14.12600643758939   -4.67283862384426
C          12.03791528144397   14.74967914462341   -3.85779070343278
C          12.84267502136411   15.82530862902188   -4.29784623034550
N          13.48687655773413   16.70968213869496   -4.63708217039030
C          12.17353119381965   14.42412631856794   -2.48863462886481
N          12.26415792202863   14.20910700073624   -1.36708935454786
C          11.25599834324733   15.33321621130909   -7.04177671637290
C          10.50672622175196   15.22634084505666   -8.20916468799070
S           9.23892069888302   14.00751376294362   -8.05513040689427
C          10.66720113529277   15.96784636630189   -9.40017899107057
C          11.69209116744598   16.82841411570404   -9.72261215990583
C          11.40869964697051   17.38794260341915  -11.02312796630111
C          12.14568786463735   18.29049130680835  -11.74102971394148
C          13.36094905436522   18.83681121461658  -11.28800101316179
N          14.35352154485392   19.31575303896758  -10.97138102687711
C          11.70188082973328   18.72781726947165  -13.00670138830971
N          11.34431805427218   19.08435812157721  -14.03598988129048
O          10.25494845825667   16.89664786770529  -11.49339045741403
C           9.69158720600497   15.96467501733830  -10.56122150718629
C           8.30712351259529   16.48348206596718  -10.16369971473501
C           9.60267404943991   14.61019458802047  -11.27123513590197
C          12.84880446277704   17.10668722821460   -8.97856277553413
N          13.79536397141574   17.29560053718182   -8.35953256555929
H           0.29113161059781    2.72133079392944    2.46500035917325
H          -1.05451821095889    1.57965968879204    2.59055813070840
H          -1.30336760704469    3.15547299663893    1.83292025582330
H           1.64228172796379    0.87073133963226    1.28946863896344
H           1.03901990700308    0.19358282285633   -0.23037799327098
H           0.26901762451874   -0.24095778286626    1.29838256190673
H           2.26891367745456    2.91406510515664    1.51447817198746
H           6.92606942922722    6.92328267182162    0.82467657958270
H          12.87848657516008   10.42530918249102    2.76053724529722
H          11.31904452654739    9.05032028741227    4.08066079212219
H          10.51962839002866   12.20582646091474   -2.29622886410972
H          12.07055068216118   16.02580364972822   -6.93366641577902
H           8.39650241023694   17.44235232018231   -9.65689440325590
H           7.80504616112965   15.77790244190498   -9.50894672097266
H           7.71310925419575   16.62065392616594  -11.06314471196486
H          10.59961976968038   14.22587028348426  -11.47744963432494
H           9.08333676427547   14.75072032874497  -12.21565272706249
H           9.05717923708249   13.88943460151265  -10.67069546704856
