93
 SCF done       -194.448639964659          0.000506973048
C           0.21789690622430    2.24919508790339   -2.70599023198672
C           0.84450254372963    2.32187674766581   -4.10194732702978
C          -0.70147475209965    3.44381278097678   -2.43867872244896
C           1.23839110747543    2.04398642388149   -1.60291040100555
C           0.99236722269691    0.81338685859007   -1.03571121298024
C          -0.13987120084728    0.23019252368546   -1.71513613404203
C          -0.73401697776736   -0.98300235454301   -1.49320811830640
C          -0.30382534769555   -1.89113968932311   -0.50803470144704
N          -0.00032671211475   -2.67033253179782    0.27658324237248
C          -1.83925593059174   -1.38747269480984   -2.27093700682676
N          -2.73595782032448   -1.71714719473340   -2.90460066433482
O          -0.58610732090496    1.06306489359500   -2.66384857133237
C           1.70795783041771    0.17608858475007   -0.01064446367837
N           2.32245302841572   -0.32955656496310    0.81493759804218
C           2.24009809143901    2.97274383673428   -1.24724831350192
C           3.11345541225303    2.89979369990543   -0.16562725438948
C           3.98467953453254    3.97899750311762   -0.11706528945652
C           3.79262803328181    4.89312317021092   -1.17677075864931
S           2.52317711931601    4.42651210947622   -2.20887753261102
C           4.74379480627520    5.92891428623868   -1.07233225981894
C           5.54490480170196    5.67779844620043    0.06357995237363
C           5.09118448173391    4.45128013469787    0.70227727465499
C           5.60660894073929    3.87330448718807    1.82278105826630
C           6.72118671302271    4.42501092064945    2.49357824029993
N           7.63693100730869    4.86508488903869    3.02355281302796
C           5.07287841718249    2.69425915163928    2.38923440446544
N           4.63903561023652    1.74780829099507    2.86693725486615
C           6.53139130784190    6.63429491812823    0.24711023960647
C           6.50452623494723    7.61067870584054   -0.74418600494139
S           5.22342564085983    7.33562136257300   -1.91648289846230
C           7.38818820129952    8.70714597106246   -0.92130192125927
C           8.42051177920343    9.05796465357857   -0.01324630065553
C           9.36233641458499   10.10235315718379   -0.32836164148384
N          10.35771445170955   10.37931957576518    0.52114132772297
C          10.45582207497066    9.73263171837187    1.65633441477552
C           9.48209394836729    8.73930667663949    1.99768559492106
N           8.52011064699623    8.42681076010365    1.16511506277168
C           9.54735973539087    8.10172116882682    3.26403871420790
N           9.63659842352238    7.63022237900066    4.30309823980762
C          11.52476027206510   10.04290427964780    2.53317312996345
N          12.38480969237612   10.28212334243982    3.25016298946045
C           9.31111555954523   10.86664801997476   -1.51896664263330
C           8.22884727802741   10.57521867771028   -2.37860702579544
C           7.29820566625701    9.51753213331836   -2.07569838610744
N           6.36750130935910    9.39606188168911   -3.02319626062352
S           6.62542001377257   10.49404505660031   -4.16755258801125
N           7.92744189802924   11.17294643283499   -3.53208833999455
C          10.31071363400155   11.82541903061879   -1.81441336407431
C          10.38874582833500   12.61651305728385   -2.95727334063799
C          11.52585231163505   13.40834162499087   -2.96146273788138
C          12.32259898553225   13.22380964759479   -1.80929093764382
S          11.65853550160460   12.08097992121929   -0.72020744547245
C          13.46303695339605   14.04407725839519   -1.93123344987419
C          13.40035624577320   14.74912902479495   -3.15448054604360
C          12.16530548956799   14.38306815971939   -3.83211952665054
C          11.69210945944303   14.85512404136369   -5.01925276911500
C          12.36988782299277   15.83528126832897   -5.77820782705343
N          12.89836956141311   16.63993866480412   -6.39911360741396
C          10.47041111799287   14.40331859735469   -5.56507576785166
N           9.48087640316068   14.03440690216086   -6.01078456942622
C          14.51091988583987   15.55027212072000   -3.37712180868313
C          15.43172813728109   15.47864232868647   -2.33463308804948
S          14.87930258717017   14.39267380671231   -1.05689109864449
C          16.67199886611552   16.14600906877348   -2.24139440123841
C          17.28549319553790   16.92013598979226   -3.20132886035043
C          18.52936875407349   17.40453628783551   -2.65183686207993
C          19.46897436228834   18.20271079944717   -3.24749968050170
C          19.34970135733279   18.69760537363880   -4.55933271504113
N          19.30843383693153   19.13042459112474   -5.62042333895356
C          20.63679001483719   18.57343940189434   -2.54839957660264
N          21.58769265501475   18.87360907826368   -1.98273585374541
O          18.68481990556877   16.95668237975160   -1.40029698678243
C          17.57635965848851   16.12841089861298   -1.02398072662066
C          18.13622617877632   14.73754826036946   -0.70969648082620
C          16.91999902073236   16.76180295935100    0.20549639299309
C          16.84424339126747   17.18982810262206   -4.50563550503234
N          16.46875188139106   17.37909440742436   -5.57252616181829
H           1.35569303312103    3.26726454927850   -4.25183237353050
H           0.05205749324393    2.22570832303641   -4.83963510398423
H           1.54968339838363    1.50502700645484   -4.24220683971326
H          -0.15567323443211    4.37771778459203   -2.53055746712821
H          -1.12753919392235    3.37380938579607   -1.43978221169171
H          -1.51148689062188    3.43066257731198   -3.16285694980482
H           3.09775490735009    2.09263214168192    0.54370572313756
H           7.25070379301986    6.64752391711425    1.04436515312711
H           9.63865751842510   12.58044859694163   -3.72571674133675
H          14.66038267805335   16.16299032176768   -4.24725578211008
H          18.52889532658147   14.27509237117539   -1.61314522256264
H          17.37275625134703   14.09669076473806   -0.28082243941103
H          18.94842705983207   14.84751029478813    0.00413920008086
H          16.51912442826257   17.74201577575220   -0.04502678793415
H          17.67278908366289   16.88246152703038    0.97974341804014
H          16.11952524939056   16.13281694338282    0.58234248966961
