91
 SCF done       -193.883204904355          0.000333238581
C           2.11751916565182    2.11366247531779    4.17054938851808
C           2.32786235618521    3.13230430592569    5.29492935238267
C           3.35740374184577    1.23949883432318    3.96372696507846
C           1.62742321888055    2.74119712012083    2.87971130840058
C           0.36463132221490    2.24949614869507    2.63438055189541
C           0.03066135086021    1.33330451202488    3.69878510250246
C          -1.11965101313530    0.61160033312795    3.87197587743392
C          -2.20927750785541    0.65924911114006    2.98288499428616
N          -3.12764030157434    0.65541125973666    2.29612076179881
C          -1.26584031836642   -0.23980817226355    4.98710079157287
N          -1.38643658173170   -0.93099752781555    5.89373215465448
O           1.04263729055988    1.25389797424451    4.57177548782163
C          -0.49889042654510    2.57475165622236    1.57750677635136
N          -1.19045335281053    2.87093501779078    0.71194355801498
C           2.36718624782848    3.65139967383174    2.09435010100471
C           2.02898482569950    4.15486870070414    0.84121806980843
C           2.98625759661988    5.03113780408572    0.34922626281480
C           4.07215939940399    5.21750385759792    1.23303022403013
S           3.91327447638370    4.29616412899595    2.65332785805165
C           4.98144691029996    6.13494606739127    0.66436510183819
C           4.47461552454681    6.53077743267779   -0.59258883581798
C           3.21335643133789    5.84736445145584   -0.83464364019746
C           2.42700987503093    5.94787433306524   -1.94262296636166
C           2.77008906238883    6.78766792611720   -3.02516379811200
N           3.04418741656248    7.46940127872541   -3.90497447079976
C           1.22840293089017    5.21673486661743   -2.09997375232859
N           0.26121236923407    4.62142456410849   -2.25011694248331
C           5.29767239352058    7.44120147524000   -1.23806861134970
C           6.42549334654767    7.75091204287202   -0.48465077922697
S           6.46556514426299    6.89570364477396    1.04569988598590
C           7.46122878290470    8.65341214116137   -0.84408549128644
C           8.54186565782160    8.92435213541733    0.02392902193514
C           9.58354296045344    9.84977467221440   -0.30794245133799
N          10.57972400778210   10.06482759528765    0.57428863409066
C          10.58528924213974    9.43494909343407    1.70439936648609
C           9.55265089368034    8.51593581990863    2.03260533155879
N           8.58041272295405    8.28629360598656    1.21053743077113
F           9.55492988374253    7.86672488325951    3.19027859904306
F          11.58249613843714    9.67191280578977    2.54588343377289
C           9.61220262216693   10.55399986331915   -1.53166427545381
C           8.54166146256138   10.27657537267145   -2.41529058032978
C           7.48656806752199    9.34783146886893   -2.07725442522998
N           6.58933086780824    9.25326827963700   -3.06002998267343
S           7.01190737917667   10.21301927702624   -4.26911717846577
N           8.35225101201380   10.80653979693722   -3.62515842459954
C          10.64686961441411   11.47916653775635   -1.83459950265252
C          10.78510024206524   12.20963865446810   -3.01043650549386
C          11.89797663291150   13.03647674834754   -2.97888464537838
C          12.61720451692044   12.94050028335114   -1.76693248034468
S          11.92057071722728   11.82214434250049   -0.67819529189272
C          13.71750810712948   13.82689377289308   -1.83333279295716
C          13.69671543377378   14.48035826799866   -3.08555125382873
C          12.55346467303239   14.00134314052601   -3.84504933266356
C          12.18162091082190   14.38164616865847   -5.10136619021907
C          12.92388630508706   15.33754793813337   -5.82599150778469
N          13.54400619805641   16.11724058921845   -6.39407400228090
C          11.04547313187440   13.84878215724326   -5.74672864322773
N          10.12366607666800   13.41943827489909   -6.27575061027178
C          14.73904464451752   15.38112056558586   -3.24268163749793
C          15.56512497744850   15.43521091068491   -2.12454858128219
S          15.01923369064494   14.32799999821577   -0.85821828795811
C          16.70798212007064   16.23990012225904   -1.93079709682271
C          17.51490602825671   16.30687911743549   -0.81723968790801
C          18.55785382429241   17.26935018197011   -1.07755509428879
C          19.57865285442276   17.65941342710179   -0.25297052266417
C          19.76287903345838   17.14359776471117    1.04299861596684
N          19.95927619359090   16.75737372652402    2.10487386390571
C          20.51547738456139   18.62399052023145   -0.67863237834061
N          21.27841574973188   19.40774217750618   -1.02229701426291
O          18.41110987103102   17.78212413767685   -2.30459076364158
C          17.26655724201640   17.21101643317754   -2.95673587735315
C          16.31263658784846   18.36545356531897   -3.27670031208289
C          17.77172524813921   16.51685335873782   -4.22456713328057
C          17.37631442615348   15.58531784707919    0.37713845774213
N          17.22995324618467   14.97759160234809    1.33920850166404
H           3.22055900285086    3.72476130928214    5.12279765797088
H           2.43539350197467    2.59234402161153    6.23208673543495
H           1.46660497555099    3.79292283587365    5.37214983344667
H           4.22392714560694    1.84919882957892    3.72755122316555
H           3.18653194121017    0.53028702202107    3.15619111948007
H           3.54994309594006    0.68440301922312    4.87780121377390
H           1.12705258851929    3.87961531877578    0.32576857130495
H           5.12076479105677    7.88040060453029   -2.20229444389896
H          10.08899323603417   12.11748450061174   -3.82357189031241
H          14.89070250397292   15.97227954311218   -4.12505471947683
H          15.92971788450118   18.80269158573895   -2.35678322173287
H          15.47873042647317   18.03518765944817   -3.88596892093951
H          16.86589675019587   19.12832518392063   -3.81830924465053
H          18.42971327905576   15.69069843477807   -3.96256657851961
H          18.33664283115857   17.23661139420662   -4.81109715505445
H          16.95036576951219   16.13878429609940   -4.82318825865709
