71
 SCF done       -161.313738924813          0.000723432843
O          -2.47969734285245    1.50087988818336   -3.28759720262847
C          -1.85783853133481    1.62742735862044   -2.08516855112447
N          -1.68883733734305    0.49095698057510   -1.47485373487897
C          -2.22420652196127   -0.45173916147328   -2.30919543695567
C          -2.70830510552392    0.19083329095950   -3.42474213893199
C          -2.22990782466916   -1.87356911325358   -1.98285768279802
O          -2.68722786179855   -2.73397602663196   -2.68861532556177
C          -1.45319492188661    2.90914433988986   -1.61379688199835
C          -0.80675638823840    3.18016174848161   -0.42504212895563
C          -0.54073568338915    4.54321703325113   -0.29157528227836
C          -0.99579370858436    5.29863076828776   -1.39016280693609
S          -1.74896551577553    4.33515469867038   -2.58092361778154
C          -0.66342852821939    6.65922122402432   -1.18073837474250
C           0.00754139699784    6.76404248041000    0.05495619441451
C           0.08715091927809    5.44331967283760    0.66219616364982
C           0.61683402755074    5.12974581365401    1.87821733684409
C           1.15544110256457    6.11636382161095    2.73356047987216
N           1.57609608731485    6.91783656186138    3.43651391216998
C           0.63959710493384    3.80843252558397    2.37433899869980
N           0.66295665871455    2.73790909820958    2.78317990039515
C           0.41691039733607    8.05955037388492    0.33873538375898
C           0.05756524633570    8.95190302358264   -0.66448274778546
S          -0.82289880641097    8.16443856312577   -1.96879133844350
C           0.32997350313608   10.34400547306236   -0.74930952391833
C           1.18960952419897   11.04483575565047    0.13343240979704
C           1.43790448371654   12.45631636100259   -0.03210147242627
N           2.24991731673685   13.09355778545163    0.81898151411129
C           2.83841121971143   12.43690386934844    1.78729242599475
C           2.62342483153138   11.02705378556336    1.92712695094471
N           1.81715383643323   10.38610390018052    1.11856980604237
C           3.30900726827581   10.31175679902108    2.94290683603403
N           3.89743749831312    9.77874011768607    3.76762176196866
C           3.68808909066113   13.13582250436026    2.67972333894323
N           4.38282631083070   13.67910588233850    3.41048877932219
C           0.86824283249338   13.23219671721010   -1.06932724501232
C           0.00751224633778   12.53292053746208   -1.94410883102798
C          -0.24090531309463   11.12240601080025   -1.78130062103482
N          -1.06723463121982   10.65772802031731   -2.71964580200642
S          -1.49048612211296   11.85843824799602   -3.69853569779515
N          -0.65227143696005   13.02536500125092   -2.99368153321290
C           1.18152248040763   14.60699429355821   -1.21244745653104
C           0.67965959546947   15.47764575910411   -2.17408624292265
C           1.22412065418366   16.74790294630634   -2.05635122588482
C           2.15162981185150   16.84843045675137   -0.99821553838699
S           2.33680364178496   15.38106539854186   -0.13992014547699
C           2.66082598881514   18.16956940265121   -0.98362212877574
C           2.05907397736215   18.90448979190058   -2.02506099640881
C           1.13061430750749   18.03521632448945   -2.72902042886790
C           0.33829745974588   18.35040078389350   -3.79285359385876
C           0.32302749068684   19.63853604001939   -4.36991686652902
N           0.30177856905193   20.68040200229215   -4.84730126429087
C          -0.52435167630668   17.40623122713063   -4.39041527384656
N          -1.22747265639361   16.64531200440101   -4.88151443164808
C           2.52124764844132   20.21860742665973   -2.09618284951880
C           3.46361879152402   20.47157030239396   -1.11950348861604
S           3.78875782323757   19.09225184588042   -0.09623081681219
C           4.15585748899258   21.69850249548207   -0.90861335297772
N           4.01332385282198   22.79473475153372   -1.59495525200094
C           4.88432322953120   23.68862378485899   -1.03488142966720
C           5.53347839837803   23.05975066245131    0.00218798956900
O           5.07711151273810   21.80642609146659    0.08499763619918
C           5.02839276724512   25.05424083301412   -1.52701958552127
O           5.78362683110761   25.86997088901639   -1.06696094112280
H          -3.19665739374370   -0.16263690241664   -4.30925497251112
H          -1.76375070704529   -2.08955080825485   -1.00641120504459
H          -0.55404783791388    2.40861682876242    0.27820257953284
H           0.95455520486258    8.36772573863656    1.21563575778356
H          -0.03923148623753   15.16233362255782   -2.90770596803028
H           2.21438762139972   20.96642162569182   -2.80354817905963
H           6.28214299153314   23.38808677268427    0.69326818393465
H           4.36564229692965   25.27212587549291   -2.38198672742981
