62
 SCF done       -140.101989416307          0.000700110756
O          -3.34504103780738    1.81409240422843   -3.42908383380276
C          -2.54529777542841    1.86063247711062   -2.33091886510623
N          -2.41995546055877    0.70873571644605   -1.74006682654600
C          -3.17550780075813   -0.16127299066514   -2.47831720906113
C          -3.73962138758554    0.53959695528368   -3.51824537706755
C          -3.29993120455580   -1.57378020301560   -2.13660470537376
O          -3.95451634686397   -2.37128651197822   -2.75566338071550
C          -1.94421647031342    3.08807380226231   -1.92729683038446
C          -1.11776595492246    3.27850407815677   -0.84006132686151
C          -0.71643471985762    4.61216758515404   -0.73481536377268
C          -1.24824278616969    5.42211288764330   -1.75338232986751
S          -2.23625764249395    4.55159014044844   -2.83766188872948
C          -0.79412726624351    6.75310799094140   -1.55811537584272
C           0.02332805455755    6.78422890930736   -0.41447876742217
C           0.10308369808098    5.43848067105917    0.13786117692715
C           0.80109128097136    5.03929437206923    1.23788345517387
C           1.56999886627957    5.93603084963079    2.01156625986349
N           2.19727456567332    6.65322049569703    2.64859266113320
C           0.80851303101918    3.69903934712717    1.68267179560293
N           0.82430673476285    2.61473673769773    2.05340904453811
C           0.51226765149720    8.05827335389602   -0.13326528395113
C           0.07060836476829    8.98891685326492   -1.05901887539389
S          -0.95686075118052    8.28613184300721   -2.28895629696346
C           0.37726077717929   10.37167024628621   -1.05958815597865
N           1.10514227368061   10.94138237533491   -0.14325059475453
C           1.23329223748275   12.24373376200656   -0.38419783155629
C           0.58971277472201   12.73991563400906   -1.53337951243228
S          -0.22285209506129   11.46028914307065   -2.33965919462735
N           0.71909838828147   14.04214648868433   -1.77495560703598
C           1.44417417606677   14.61209281613107   -0.85642011975333
S           2.04170030870630   13.52392975033632    0.42501530855195
C           1.75518731753954   15.99405472558213   -0.85592729057309
C           1.37943120886923   16.91402394091097   -1.82070090831438
C           1.85416483859951   18.18974914001385   -1.52289520436831
C           2.58906307807458   18.23433970941968   -0.32508504604448
S           2.69970294116025   16.71016879863993    0.43179314423896
C           3.02809451992000   19.56851936698770   -0.10958043928787
C           2.57182234382228   20.36363774422662   -1.17559632245243
C           1.82051844475115   19.52786799747454   -2.09787772314002
C           1.21519987298156   19.91439844798721   -3.25634140113941
C           1.25471912632367   21.24949436830406   -3.71354033925233
N           1.28463091537526   22.33217445361973   -4.08898816301789
C           0.50809494690287   19.01205055105396   -4.08027320013017
N          -0.06778709914742   18.29078512934035   -4.75985357896942
C           2.95850057339967   21.70058375156650   -1.05304027025065
C           3.69499639542559   21.90517923667764    0.09436201147428
S           3.92457606214239   20.45691220143157    1.03994648520502
C           4.25699380078351   23.13030874100582    0.55960850369539
N           4.92682390577404   23.30112509034226    1.66128989484570
C           5.25798900188016   24.62884440620194    1.68375832860319
C           4.74917260242202   25.21175647152576    0.54673885493555
O           4.11799336937960   24.27152734629745   -0.16411964911146
C           6.01952871922552   25.22704540148341    2.77357479487515
O           6.32788819678497   26.38842772301886    2.83616305800830
H          -4.38897256479122    0.25055734499678   -4.31858500946232
H          -2.72349262165000   -1.84772778143324   -1.23650015452618
H          -0.84365051418352    2.47548252863836   -0.18161596396828
H           1.15195907777872    8.32913559043540    0.68595995760167
H           0.79558302700654   16.63501054912195   -2.67806180486581
H           2.72598602130003   22.48803459127686   -1.74664822326310
H           4.77775989384459   26.21451122372915    0.17299914490511
H           6.28774811438616   24.49800322948923    3.55765036496523
