141
 SCF done       -262.226555303783          0.000754377952
C          -7.90872731036975   -1.79553393338194   -3.37783872803341
C          -6.84054680385270   -0.80581661457069   -3.10249966642646
O          -5.83316417722696   -0.93482006214088   -2.44173847907360
C          -7.22088572371290    0.40342267564866   -3.86692869504409
C          -8.45389295339827    0.19650624274256   -4.50717584986611
C          -8.93310849891512   -1.14092920771879   -4.17578117642092
C         -10.16624847362700   -1.64394565921701   -4.49653854905292
C         -11.12522465073334   -0.94946562069909   -5.26417374114198
N         -11.94538737797449   -0.44301056270042   -5.88751423227700
C         -10.67674094156444   -2.89217158869053   -4.07912720570774
N         -11.18188074404369   -3.87394127309169   -3.76410009679088
C          -8.99260115449850    1.20626899725641   -5.29229254414288
C          -8.29632042140759    2.39825481865412   -5.41854106537886
C          -7.07979334319334    2.58687208063192   -4.77128127416437
C          -6.52122092799023    1.58648608263079   -3.98456378952763
Cl         -6.25141393935979    4.08668334284361   -4.95182001200423
C          -7.88271143058726   -3.13825232542298   -3.12025839990152
C          -6.98605941130083   -3.88916355511598   -2.32887530458422
C          -6.12779376075893   -3.51636815927386   -1.32062388380771
C          -5.40592432841126   -4.58785791432697   -0.76340713072792
C          -5.75844885240472   -5.83728022814657   -1.34792289676346
S          -6.96494252209316   -5.63285778654773   -2.58565674488148
C          -5.16647092380734   -7.03590624567749   -0.98920500212688
C          -5.51112637662935   -8.30357527672356   -1.64313559173354
C          -4.51730868612267   -9.13557480301739   -2.15178550330184
C          -4.84838014062674  -10.32594247647045   -2.77050559689331
C          -6.17356351863686  -10.72085753808604   -2.89820210210841
C          -7.16412157870496   -9.88548402340021   -2.39220591162898
C          -6.84221350631208   -8.69343666482390   -1.77642826902489
C          -6.54278208597506  -12.01004053147478   -3.56445330857090
C          -4.19803913758264   -6.97239185735146    0.03400461321924
C          -3.86412243782817   -5.73099745595003    0.63971497036797
C          -4.43149004702609   -4.52824799725873    0.25688136879055
C          -4.01660904987285   -3.25413398409641    0.85284452985152
C          -3.66666245832596   -2.17108381802828    0.04989534837469
C          -3.25131080871648   -0.98324677890330    0.62047530222712
C          -3.17536271826637   -0.83896310472563    1.99942907722660
C          -3.52769010495821   -1.92226767511077    2.79818290831359
C          -3.93879768441569   -3.11362563603213    2.23752473811098
C          -2.71881695693374    0.44214244607514    2.62576761533208
S          -2.63161254923415   -5.93014469545116    1.86376862468718
C          -2.56564677245924   -7.64703059855053    1.55553994868577
C          -3.45987389788235   -8.03675617852575    0.58563266701572
C          -1.64789037530523   -8.48857487495754    2.25268976630458
C          -0.83766359932617   -7.99477069331826    3.29526051022390
C           0.10933853800902   -8.81593239403046    3.99218712005269
N           0.83471842957377   -8.28012542019462    4.99550423749489
C           0.67560947773191   -7.03602291555106    5.30677658927890
C          -0.25006008862959   -6.21845365206862    4.60550659972362
N          -0.96875301640572   -6.69832763869382    3.64481319032654
F          -0.40687520413890   -4.93634029342795    4.92316413797728
F           1.40078607331918   -6.54339580997487    6.30695212933546
C           0.32427905842301  -10.17005217491720    3.66453473984683
C          -0.49101738998383  -10.67826620327649    2.62689300599989
C          -1.46360967580982   -9.85494290400500    1.93866727228257
N          -2.11271686178026  -10.54742957252236    1.00058964067573
S          -1.57578836127070  -12.05783613402753    0.98558183426587
N          -0.49033673823437  -11.92764299922068    2.15788189340157
C           1.30588739058920  -10.95600405896390    4.33861671030043
C           1.67620652200978  -12.24324053825729    4.02569145931337
C           2.66876723802469  -12.77086820698604    4.87308784730368
C           3.06933013096318  -11.82970063993978    5.86011546713947
S           2.19675315713507  -10.32380064551564    5.70123676127871
C           4.07406566659047  -12.08491341705718    6.77483827557183
C           4.53449861646121  -11.08060273362018    7.73931698911702
C           3.63607195880752  -10.40000376154481    8.55697033513852
C           4.08960982880684   -9.46049802622546    9.46088247908849
C           5.44479776200523   -9.16670617152651    9.57207909835833
C           6.33761189526090   -9.83636498652845    8.74439145920878
C           5.89130410151530  -10.78012204110352    7.83987860827982
C           5.92088287037924   -8.13401691468771   10.54548112627530
C           4.67575218737981  -13.35939457262012    6.71014448410001
C           4.28237252989179  -14.29486254526198    5.71501829877861
C           3.28728764327915  -14.03554244525460    4.78855726402154
C           2.89310449459525  -15.01481432578955    3.76996473337877
C           1.55523291390372  -15.35170858743664    3.58272444721986
C           1.19329114975392  -16.27278534957050    2.61843976473403
C           2.14971904769338  -16.87896358503375    1.81428105098076
C           3.48565905813293  -16.54276271183018    2.00717418156547
C           3.85634503619824  -15.62826036184873    2.97161890412738
C           1.76541491874457  -17.86591344460290    0.75574545483366
S           5.16609996841057  -15.78787535429515    5.87155300689079
C           6.05919871833196  -15.15973029483571    7.24402890296633
C           5.66591656962262  -13.88073304204079    7.56196315826970
C           6.98806170807623  -15.99708533900864    7.90637800012032
C           7.97085839920074  -15.65676245955098    8.78586805805429
C           8.52767476639175  -16.69948697807678    9.68979518999977
O           8.39517182190084  -17.89600752884571    9.58988211347453
C           9.22458150262805  -15.94692192189315   10.75839542988102
C           9.20346402567482  -14.57292122201145   10.45518755812262
C           8.56313153379348  -14.38834264252148    9.15577564982961
C           8.72527501741960  -13.29677952156828    8.34315517014357
C           9.33179017582909  -12.09181889763411    8.74808096112606
N           9.77765776511411  -11.07365412970259    9.03583340689071
C           8.36024549926269  -13.28651728577394    6.98110395567585
N           8.12902489919039  -13.24802454759869    5.85760415976357
C           9.77582522955801  -13.66645505184083   11.33484492566298
C          10.36278672218066  -14.14396945574246   12.49637274204136
C          10.38740191822067  -15.50659613361661   12.77477938390388
C           9.81540339171751  -16.43069724754291   11.90713610338183
Cl         11.13914535127522  -16.05725564994137   14.22322109984777
H          -9.93063925575656    1.08237066813048   -5.80800965385325
H          -8.70006142293460    3.19212075975746   -6.02704735491842
H          -5.57746509548586    1.72075878088202   -3.48017669280494
H          -8.62664228776107   -3.74490177665156   -3.62444988613210
H          -6.03687902877965   -2.50429349378212   -0.97589316734350
H          -3.48253765977281   -8.83343676475054   -2.08510062124014
H          -4.06303206384003  -10.95567642828974   -3.16404807604118
H          -8.20071363146593  -10.17630913706051   -2.48247355222269
H          -7.62562822276897   -8.06866632095202   -1.37389065279979
H          -7.08326030353102  -12.65354242072882   -2.87111455726983
H          -5.65879662168304  -12.53831238263176   -3.91233825064299
H          -7.19443137821572  -11.82185661714184   -4.41669809980661
H          -3.69761742045921   -2.26434889567089   -1.02497050020444
H          -2.98101959016532   -0.15674767711158   -0.02048609105730
H          -3.47671823943063   -1.82826149007372    3.87326739997750
H          -4.22592181508622   -3.93596686001296    2.87538953517738
H          -2.54341943971074    1.20527203029361    1.87190035990362
H          -1.79409864121635    0.28080985443814    3.17904001515629
H          -3.46504470183960    0.80953701944611    3.32894139518266
H          -3.57644243596674   -9.06357468789349    0.29413022374594
H           1.25317805434945  -12.77369562695461    3.19347189058407
H           2.58214413903715  -10.62653350997441    8.49579527453834
H           3.38162086003958   -8.94470541165438   10.09343654208817
H           7.39440496320904   -9.61797004645555    8.80536899053386
H           6.59292568435184  -11.26573947045457    7.17698967886928
H           5.42952877871105   -8.25608587209896   11.50905271047567
H           5.68210037611974   -7.13715399831075   10.17457707297081
H           6.99694295869422   -8.19832439649350   10.68485632360230
H           0.79964808072199  -14.90781474705979    4.21408601971195
H           0.15037007808432  -16.52638678890997    2.49140624586272
H           4.24318571040585  -17.00397662164545    1.39008545693088
H           4.89661834334682  -15.36557782930291    3.09289497572544
H           1.95909313133302  -17.45038005478422   -0.23316437086887
H           0.71074693379485  -18.12048196107331    0.82203509269624
H           2.35339617496225  -18.77704351690044    0.85235634776415
H           6.02836196888548  -13.35020375922039    8.42460284321269
H           6.86046796501577  -17.06414551289794    7.75231352082455
H           9.76249940989270  -12.60632813335150   11.13894432363971
H          10.80881869145534  -13.45372583425959   13.19506168558420
H           9.83022477389427  -17.48857746721340   12.11621979961086
