93
 SCF done       -207.974654252700          0.000240307899
C          -5.14667111258673   -0.07635880849599   -0.80630676904778
C          -5.43434904489017    0.24168933906404    0.61318200984255
O          -5.74800117219979   -0.50812568250171    1.51135061530764
C          -5.25880348245998    1.70323874734985    0.73750066472608
C          -4.89199485663568    2.24687654264452   -0.50432954106750
C          -4.81274052593626    1.16913595935871   -1.48590549556946
C          -4.47666497016989    1.33903421225186   -2.80386943032042
C          -4.16148018785730    2.58751938493822   -3.38447911957391
N          -3.89343270038286    3.56206602002756   -3.92817007615848
C          -4.38463103119067    0.33396391148724   -3.79077702967181
N          -4.28253646143925   -0.40793437878638   -4.66205055126233
C          -4.67593120247066    3.61484320653567   -0.60750174502990
C          -4.82913094657123    4.40381300613250    0.52150891450222
C          -5.19311572357913    3.84512536453279    1.74294065224042
C          -5.41425159091809    2.47855242896948    1.86784468599746
Cl         -5.37125065227845    4.86462686893320    3.11800068922219
C          -5.16569087197400   -1.29710177451585   -1.42529270480116
C          -5.44639798177502   -2.59254544990870   -0.94880350246306
C          -5.81528186511204   -3.09341014685059    0.29603756094730
C          -5.96711134366815   -4.47112576535819    0.28144508747361
C          -5.71468254834794   -5.04808870360837   -0.98828585483676
S          -5.29859331488266   -3.88565225014845   -2.15326057333521
C          -5.87404322660514   -6.44790154128132   -0.89397997265748
C          -6.22649312986115   -6.76374859588832    0.43649731162879
C          -6.30538432282707   -5.53552593313437    1.21276542732417
C          -6.63340498832999   -5.42343383369671    2.53094958080346
C          -6.94290333652276   -6.55329433069587    3.31973100302603
N          -7.19581989997582   -7.46462431171207    3.96781483019342
C          -6.69866956838931   -4.18883326180165    3.21418836421163
N          -6.76644925319587   -3.20739863566433    3.80177685413611
C          -6.38741634983389   -8.12598690007609    0.63867205801442
C          -6.16395987832405   -8.85621435105608   -0.52450110994263
S          -5.75663443885866   -7.83373295413477   -1.88970335123621
C          -6.22341923733484  -10.26890709572617   -0.65999435803980
C          -5.99966868012528  -10.90511267811800   -1.90075380783823
C          -6.03143849132472  -12.32936147400961   -2.05358772522007
N          -5.81061836409510  -12.86644851683949   -3.26971334164490
C          -5.57233628940773  -12.09458920610041   -4.28011840004101
C          -5.53801196690998  -10.68274059227639   -4.12819397499104
N          -5.74609024004087  -10.13273769735858   -2.97599026938653
F          -5.29366334227950   -9.88845510723888   -5.16319969340592
F          -5.36335666089457  -12.66176250809871   -5.46208855524834
C          -6.28037095019253  -13.20451714899499   -0.97312361903545
C          -6.52057673558314  -12.57478183928689    0.27187470368776
C          -6.49473223829943  -11.13731445776159    0.42471489520630
N          -6.74579623007023  -10.77857684129806    1.68489754079544
S          -6.98878543236830  -12.08456724667982    2.57822369031841
N          -6.79074853051083  -13.18143206028039    1.42902242792261
C          -6.27232641402501  -14.61470788625921   -1.13903350594923
C          -6.46862748142099  -15.56806505498302   -0.14469111582792
C          -6.38029044115815  -16.86023360422818   -0.63939880965984
C          -6.11627115781434  -16.89811990089590   -2.02687749477558
S          -5.97538817258353  -15.33819783232015   -2.70967832412886
C          -6.03286872812775  -18.25235622018111   -2.42521690199996
C          -6.24411979894867  -19.07046620227075   -1.29294814557784
C          -6.45961169725843  -18.22092200182271   -0.13483350201007
C          -6.65330742055943  -18.62633406661423    1.15306132736962
C          -6.67001700298252  -19.99538351657521    1.49420498578611
N          -6.68221577134895  -21.11288273614399    1.75112367085101
C          -6.84373228064900  -17.71288234682825    2.21137880585285
N          -7.00677374365898  -16.97401053273132    3.07259966394115
C          -6.14726610199025  -20.42432750910344   -1.57729492027372
C          -5.85810146062551  -20.66007317570637   -2.91537590623228
S          -5.74374179270267  -19.16244278788865   -3.83299647752432
C          -5.70178798464285  -21.89304034143725   -3.58457200683399
C          -5.44075021205655  -23.12372533022130   -3.06256415576110
C          -5.73668587860742  -24.32713947970162   -3.89247536271183
O          -5.98542309284748  -24.34405037925847   -5.07409997651649
C          -5.71178488500530  -25.46211963030781   -2.94554906773741
C          -5.30236375012048  -25.00605335109793   -1.67865249010853
C          -4.98144811815225  -23.58343518090425   -1.76732473376655
C          -4.16626993719540  -22.91078135985137   -0.89530010890169
C          -3.64493568542793  -23.47544468623390    0.28876850957329
N          -3.19048006210010  -23.88458959719765    1.25924308724816
C          -3.66771586095653  -21.61284980282973   -1.12123313136686
N          -3.21429122129019  -20.56939290476896   -1.27513699751988
C          -5.24264460933330  -25.89444863727129   -0.61530596234499
C          -5.57715442748237  -27.22136434769196   -0.83617601629377
C          -5.96055486934210  -27.66096686956082   -2.09954516262504
C          -6.03755078053726  -26.78295739999316   -3.17538001993505
Cl         -6.35166796772256  -29.32109972698966   -2.33201303676390
H          -4.39335042347396    4.07626878492816   -1.53899444364812
H          -4.66432578041564    5.46780452410324    0.45586828101915
H          -5.69685342896031    2.02970570292042    2.80695038478992
H          -4.91407818051625   -1.29235068818667   -2.47920176884235
H          -5.95433711612290   -2.45787646052675    1.15279071003307
H          -6.64832143629390   -8.60107028893417    1.56610639469679
H          -6.66072214116392  -15.29476102691794    0.87645636090370
H          -6.31824775444970  -21.21316702762961   -0.86764305911999
H          -5.87197496219184  -21.88144260673772   -4.65709663570712
H          -4.95724409339070  -25.57220100208399    0.37295711609268
H          -5.54023254509731  -27.92599335698759   -0.02032831527859
H          -6.33885796133458  -27.11435506744703   -4.15641073845832
