95
 SCF done       -208.541353682499          0.000891428905
C          -3.85904401848507   -0.48728212129983   -2.80045046594012
C          -3.62023119269098   -0.09153352784409   -1.38949385553019
O          -3.74131120050862   -0.75893992418705   -0.38664567483032
C          -3.12259304392169    1.29888646297662   -1.45080904748741
C          -3.09635203696239    1.73965897084811   -2.78478318185557
C          -3.59312729451238    0.66962296878010   -3.64245821053882
C          -3.83236606636240    0.77764152348913   -4.98699435574467
C          -3.56022901147026    1.93669257133911   -5.74580564127276
N          -3.35527962182347    2.84184236959988   -6.42074221867521
C          -4.41084058701875   -0.21965111539928   -5.80175706696217
N          -4.89535491150366   -0.96902112375665   -6.52477063496359
C          -2.64452340202172    3.02125002691002   -3.06916341435417
C          -2.23542406355819    3.83307285157057   -2.02306257290037
C          -2.27500689882846    3.38098775041118   -0.70743473825366
C          -2.71955441801417    2.09959590412445   -0.40218720510501
Cl         -1.76231841917444    4.42627842845863    0.55992444525334
C          -4.10981923490488   -1.74335225354621   -3.27974663857763
C          -4.44369345653119   -2.92941687488706   -2.59453677495629
C          -4.90323775376645   -3.16346691662175   -1.30287090904421
C          -5.11771621909982   -4.51190420493540   -1.06227502541798
C          -4.81823060727084   -5.33293395517676   -2.17740869564869
S          -4.31252924819232   -4.42956822505056   -3.52466446545051
C          -5.00504030024688   -6.68371560794518   -1.81288107572567
C          -5.43081775474935   -6.72230245785361   -0.46578121282500
C          -5.53513277575342   -5.36208254534443    0.04006477538852
C          -5.94792808321292   -4.97824651952911    1.28123153178535
C          -6.31264259139488   -5.91868214051893    2.26917652637532
N          -6.60506139010837   -6.67729747406355    3.07763074762611
C          -6.06351224619246   -3.62488723139456    1.66834009612848
N          -6.18966767858079   -2.53509558195067    1.99944965258736
C          -5.61041008927016   -8.01355317059883    0.00274243368450
C          -5.31986682255633   -8.96483330678732   -0.97147642951673
S          -4.83624721970907   -8.24431063680847   -2.49685665233710
C          -5.34375136103605  -10.37174657612237   -0.80705895078980
C          -4.99281676234826  -11.23926838991207   -1.86931217500716
C          -4.92209721673022  -12.67327357126793   -1.73503915441194
N          -4.54517685646941  -13.40669731036661   -2.79223798461369
C          -4.25962157308895  -12.82166758192096   -3.92879940153952
C          -4.34789963570427  -11.39857425209054   -4.06682868796532
N          -4.70355635669242  -10.66433537786103   -3.04230808298498
C          -4.04863267360645  -10.76719395093732   -5.29961802943251
N          -3.79889002901983  -10.27796490659371   -6.30429763321350
C          -3.84265999019373  -13.60569970708981   -5.03588605290471
N          -3.48981690268108  -14.18861666120526   -5.95555544231838
C          -5.21561262869354  -13.30862230726242   -0.50056116282340
C          -5.60056564269028  -12.44135051678651    0.54736405167990
C          -5.67098152438616  -11.00872691133516    0.41052177241126
N          -6.05283766190093  -10.42925853807890    1.54969188684340
S          -6.29926961266969  -11.54738222600968    2.66737500681064
N          -5.93197434880029  -12.83330357201884    1.77836221921699
C          -5.10866085589010  -14.70538884675675   -0.26895912189703
C          -4.78818551234661  -15.71320804026410   -1.17382654167972
C          -4.72049566442525  -16.95694533503961   -0.56532053168271
C          -4.99128780814025  -16.90666796607172    0.82101898783179
S          -5.35276170323298  -15.32796701458633    1.35898382033765
C          -4.85641498493824  -18.20996393009166    1.34949957407695
C          -4.49464293385454  -19.08569610591399    0.30157709435148
C          -4.42594709699132  -18.33141063075933   -0.93779534727004
C          -4.18144284421650  -18.82794746944775   -2.18386383370730
C          -3.93354591954503  -20.20251224060303   -2.38538904051640
N          -3.72991303725476  -21.32268815728530   -2.52209024592367
C          -4.17668522178725  -18.00749209297089   -3.33265082234261
N          -4.17537068432993  -17.33606092850010   -4.26130813587875
C          -4.32832497244821  -20.39583063744487    0.72359519711759
C          -4.56653231804491  -20.54395550791704    2.08430931834597
S          -4.97619980360218  -19.01141936394304    2.84624393446066
C          -4.45483637264139  -21.70223648781361    2.88298991978481
C          -4.40596313936430  -23.00779330084637    2.49849673835941
C          -3.84108530845644  -24.00802054853792    3.45098852230570
O          -3.62968515126327  -23.84202961831980    4.62815371433338
C          -3.55111442944132  -25.19983904273527    2.62619525697745
C          -4.03431468859848  -24.99462256115029    1.32029325041099
C          -4.70782078756008  -23.69958029714526    1.26153678820874
C          -5.64772975675332  -23.34582591361292    0.32967887512543
C          -5.99385457016975  -24.14715510222802   -0.77987900930446
N          -6.31624198975478  -24.76238745745383   -1.69262287284599
C          -6.44843943957175  -22.19053744045884    0.42280106342728
N          -7.13484579561251  -21.27188992887502    0.47692264915023
C          -3.83599289577528  -25.96859442302946    0.35317764649647
C          -3.17154237198703  -27.13258111472625    0.70694943677299
C          -2.71603132577239  -27.32873543720056    2.00721205265985
C          -2.89747894871766  -26.35970789742160    2.98829404793066
Cl         -1.90722261755014  -28.79497701054198    2.40536787422423
H          -2.59936595992907    3.39453263796146   -4.07895147012731
H          -1.88006638496359    4.83071489639661   -2.22789721645200
H          -2.75459692831011    1.73577526674815    0.61250391698977
H          -4.01168702216084   -1.88066618854611   -4.35057501070342
H          -5.05558723314591   -2.37666558173205   -0.58754271082097
H          -5.92344155830328   -8.29041138060488    0.99258867039094
H          -4.61143374368396  -15.51541390810981   -2.21463480055046
H          -4.00059588321731  -21.20320053972742    0.09485017258678
H          -4.31334206352779  -21.53726519244100    3.94704044033050
H          -4.17225221739073  -25.83143666602142   -0.66179652914690
H          -3.00301264621610  -27.89909760966133   -0.03298114673614
H          -2.54268697222361  -26.50156843947853    3.99676920104834
