102
 SCF done       -243.659996836196          0.000641353861
C           3.23565714914971   -5.04588800201045   -0.60669859263347
C           2.97342472876059   -4.86864012252881   -2.04007560977426
O           2.04302475920108   -5.32274165720339   -2.68216318046058
C           4.06918110016927   -4.03071923833171   -2.55727748227132
C           4.93761306240101   -3.69740862582392   -1.50194671937926
C           4.43740725840630   -4.29834869381295   -0.26798188287055
C           5.00558536131227   -4.15473455517196    0.96899022677598
C           6.17610699980795   -3.40458210433521    1.21840508774539
N           7.12113170873705   -2.81336527726633    1.48991878952199
C           4.51917695756869   -4.71320560906100    2.17111721838952
N           4.18670264940450   -5.12759304833289    3.18893452142939
C           6.05268936533370   -2.91348851683021   -1.76381410169459
C           6.27711073055539   -2.48029418659366   -3.06146648441250
C           5.40500607134781   -2.81869593915616   -4.09163538865463
C           4.28240453348713   -3.60337989703194   -3.85160827850243
Cl          5.72286137423045   -2.25814220369105   -5.68714076076985
C           2.49398402983398   -5.81713492226540    0.24763551112418
C           1.33989147873429   -6.58463004024548    0.01068271718793
C           0.75243172562123   -7.35598972048415    1.02048159436652
C          -0.35702280160427   -8.05088986682224    0.57732276660889
C          -0.63690768645233   -7.79608471665441   -0.78723324311053
S           0.46702397297490   -6.72389100961101   -1.51403257936771
C          -1.77649431394772   -8.55811195523561   -1.14898137340629
C          -2.19965638708922   -9.30100039579278   -0.03256859126426
C          -1.35324502983032   -8.97068184159805    1.10173574178543
C          -1.53881504053523   -9.37948175159532    2.39029518236298
C          -2.65750829461174  -10.16945544305671    2.72588948803094
N          -3.60603589347898  -10.77520015615383    2.94855967482041
C          -0.67545916010893   -9.00380452514792    3.44098404952511
N           0.03426621726473   -8.70442076411700    4.28935098138670
C          -3.28214543636114  -10.13162968628075   -0.30540613515995
C          -3.72343875009822  -10.00003248470497   -1.60943665157479
S          -2.74955961261497   -8.84911429291683   -2.51718595584150
C          -4.82782187149832  -10.65454655041789   -2.24717935054949
C          -4.77096156249670  -10.69333970168183   -3.72491166500889
C          -5.77715316683844  -10.11454046480227   -4.49984526653256
C          -5.70829371321790  -10.09785360720932   -5.88730582648086
C          -4.61050770566736  -10.66342872802454   -6.53215868932800
C          -3.59276755353356  -11.24361130287216   -5.78004416060306
C          -3.68077593912282  -11.25041992996796   -4.39257009700635
F          -2.70617305180374  -11.82850519388203   -3.68610925346826
F          -2.54326297558920  -11.79192540642815   -6.38893166768801
F          -4.53858933281405  -10.65323803774344   -7.86000678140301
F          -6.68820882438212   -9.54574220558387   -6.60150870827934
F          -6.83806448400832   -9.57132243058784   -3.89912338157886
C          -5.89910488857913  -11.18174868804479   -1.57283672321478
C          -6.11771749647478  -10.91701575813505   -0.13241127495784
C          -6.17660485218645   -9.61761674028829    0.37242858594805
C          -6.41203474974577   -9.36793960545116    1.71814626966867
C          -6.61149154808998  -10.42855700771858    2.59980950072509
C          -6.56581142504555  -11.73490386665913    2.11968165603292
C          -6.32146916624132  -11.96248323901030    0.76950875222349
F          -6.25574353256884  -13.22413801171198    0.33136104350925
F          -6.75632124944499  -12.75901863359805    2.94403750775049
F          -6.84701610830515  -10.19187287554234    3.88306498696701
F          -6.44510328975498   -8.11268849338468    2.16602939504712
F          -5.99029694705568   -8.58230893244826   -0.45355880661074
C          -6.89747847220162  -12.01989405946872   -2.17377628274944
C          -8.18293258605203  -12.20942657574149   -1.69683198164630
C          -8.89558283451776  -13.13693761333542   -2.45207987620727
C          -8.14568947401153  -13.66871681174559   -3.51503870000010
S          -6.56815049174367  -13.02533748023296   -3.57842191274442
C          -8.95111989230339  -14.59752423500695   -4.22099864740979
C         -10.21249790265662  -14.65384125191366   -3.59516319590746
C         -10.21212814284538  -13.75437339783799   -2.45405388508271
C         -11.21060248155292  -13.57827508779024   -1.54257581992540
C         -12.43146756795623  -14.27846533411987   -1.64622475932616
N         -13.41658508991250  -14.85472374187938   -1.75380090692445
C         -11.06381121481257  -12.69979069725064   -0.44801528392451
N         -10.92262615247882  -11.98024930076999    0.43306075063233
C         -11.07108178917888  -15.56850576675589   -4.19208488652507
C         -10.47959759850407  -16.21739380582115   -5.26602900567128
S          -8.84060458696212  -15.64926035834966   -5.55253768358825
C         -11.02691991471993  -17.19490637499588   -6.12933675830378
C         -12.09359539186527  -18.01478841302350   -5.93256195324361
C         -12.71834133331213  -18.66406058425793   -7.12376899297410
O         -12.25358244949495  -18.72184238437645   -8.23625593295183
C         -14.02746859920148  -19.15739438455988   -6.64917377099901
C         -14.13207346035900  -18.94904862398375   -5.26095352051473
C         -12.87961001451635  -18.38022026104287   -4.76951268383053
C         -12.44950203788541  -18.44097387459079   -3.47066149075366
C         -13.23279940396055  -18.93659607896478   -2.40528895891034
N         -13.82364242775768  -19.33107782856306   -1.50496054724549
C         -11.14423195704179  -18.11229349130999   -3.05495830029748
N         -10.08601300792411  -17.87880972967033   -2.67584108827475
C         -15.29887682057369  -19.30420030689371   -4.59999293280593
C         -16.33141256205374  -19.87226199456162   -5.32937649248506
C         -16.20498712314060  -20.09017666518618   -6.69833057714068
C         -15.04772458445337  -19.73014922730084   -7.38058229479074
Cl        -17.50626829450843  -20.81341939414691   -7.56108315089711
H           6.74577414302554   -2.63699132649117   -0.98663059532361
H           7.14057359424050   -1.87170918649051   -3.27942178161189
H           3.59948994848857   -3.87335762241115   -4.64142405163806
H           2.83283945729010   -5.87769272261408    1.27481304798836
H           1.14875969087954   -7.39181241538451    2.02003596698064
H          -3.69799907534710  -10.83249314744029    0.39239649331642
H          -8.58184803260517  -11.67376350666570   -0.85477269390432
H         -12.09142724865201  -15.73293009085999   -3.89711073265997
H         -10.57268057474353  -17.27078610766649   -7.11311301615557
H         -15.42105072511763  -19.13598921085184   -3.54230469047690
H         -17.24709239124094  -20.15191809142432   -4.83260763402778
H         -14.94275051860587  -19.89062478384393   -8.44183538995468
