87
 SCF done       -190.637132320864          0.000682836545
C          -6.68089912646580   -0.41746791623595   -1.22045329392967
C          -6.80340730633449   -0.93514835772600   -2.58862076154667
O          -6.78940603197323   -2.10038293552075   -2.94257127740566
C          -6.95360109632363    0.24315493804836   -3.46097766431149
C          -6.90767331279868    1.41065127956530   -2.67795908476491
C          -6.72083167670639    1.03568108172585   -1.27825993725083
C          -6.59166756325886    1.91322527161817   -0.23548340151181
C          -6.63730799532840    3.31788303418462   -0.37488123409859
N          -6.66619691729822    4.46411894979583   -0.41686326395712
C          -6.38431394213302    1.56549261683046    1.11710821132731
N          -6.21079236964338    1.36841270416458    2.23489948021048
C          -7.03636310669536    2.64663876785162   -3.29611614623804
C          -7.20603872084413    2.69330391135276   -4.67123291279755
C          -7.24674373258380    1.52693742464991   -5.42869181866679
C          -7.12026285687385    0.27843403234367   -4.82988336255186
Cl         -7.45810216304441    1.63275191893487   -7.13335615133861
C          -6.58184861028517   -1.17971359287869   -0.08669115222802
C          -6.54644958669502   -2.57607812962740    0.07087049737220
C          -6.47963720887653   -3.16893527185287    1.33832274368525
C          -6.45877944710319   -4.54899652720800    1.27581080988755
C          -6.50122819476305   -5.02355755679127   -0.05664350508041
S          -6.57780959003974   -3.77930351668522   -1.21592618536012
C          -6.48050403653984   -6.43959786121265   -0.02002858538423
C          -6.42759932076537   -6.86006339759242    1.32727775181516
C          -6.41016017034748   -5.68629058276452    2.18401877075263
C          -6.36294110079569   -5.65572285452316    3.54588272054162
C          -6.31838514221820   -6.83094127156431    4.32713195982084
N          -6.28267967534085   -7.77845044024696    4.97096415117027
C          -6.35672299280379   -4.44411238921366    4.27051217631211
N          -6.35702179153080   -3.46373123479602    4.86430578921231
C          -6.41425499815340   -8.24606920715811    1.45814128663586
C          -6.45390401139236   -8.86504959139867    0.22026738133094
S          -6.50651812441742   -7.74201416948444   -1.11997298668569
C          -6.46382715820727  -10.25787044309844   -0.06495072450310
N          -6.48489084541156  -10.63244280557996   -1.33312146940207
N          -6.50290875056253  -11.87484665359843   -1.71564490776818
C          -6.51190196959930  -12.89761602206692   -0.87735688663349
C          -6.49376260337690  -12.63728217389523    0.52746529858607
C          -6.46260086672460  -11.26330867779185    0.95031104288065
N          -6.44754605877846  -11.25926328100874    2.26656670056454
O          -6.46779263931001  -12.53474111701404    2.63731236617807
N          -6.49600739265872  -13.38108817665094    1.61353231398142
C          -6.54092493735469  -14.21001185110470   -1.42289410479256
C          -6.58373449255280  -15.41629395394738   -0.74508552940373
C          -6.61112670349624  -16.49011642053776   -1.63031792570966
C          -6.58269297037117  -16.08340115792377   -2.98259719344556
S          -6.52877833460182  -14.38935892769182   -3.16308495012139
C          -6.60512932681448  -17.24191998492288   -3.79984312825747
C          -6.65549377585306  -18.37588107168747   -2.96465714007513
C          -6.65004647007528  -17.94167438814777   -1.57730798681237
C          -6.64644809533446  -18.74493552489141   -0.47555758392002
C          -6.65493021384844  -20.15107963353159   -0.59781118675322
N          -6.66307960335295  -21.29128166447688   -0.71847268283996
C          -6.63371123355363  -18.23320111479681    0.83980401114378
N          -6.63281933527811  -17.82569079235710    1.91088147311675
C          -6.65548655679374  -19.56996028945878   -3.67242497514518
C          -6.59385856985224  -19.36572558454019   -5.04362909075788
S          -6.57620464647724  -17.65535340580327   -5.44994074398384
C          -6.59137460136998  -20.32875667948556   -6.07891015980887
C          -6.29351612424544  -21.65387210833851   -6.00292619191041
C          -6.76340485569341  -22.55796307445549   -7.09388949943806
O          -7.18251185283182  -22.22380014518198   -8.17544533647949
C          -6.65541592606997  -23.92135355255250   -6.53283727841882
C          -6.03662200679324  -23.86124737409900   -5.27001239282485
C          -5.65960131149854  -22.47823578009007   -4.99161725849534
C          -4.68495683470287  -22.09469466038261   -4.10942033011609
C          -4.00941205636193  -22.98652100569920   -3.24811493584046
N          -3.42644112361683  -23.66670029744548   -2.53186409928751
C          -4.17261040256931  -20.78505507867409   -4.02111485085321
N          -3.70663600685172  -19.73939204212927   -3.93523643477453
C          -5.86760253717293  -25.02268253661409   -4.53094645827737
C          -6.30499399689819  -26.22307809203791   -5.06814575330733
C          -6.89665917943939  -26.26941582560542   -6.32707152729129
C          -7.08418024537150  -25.11403438005105   -7.07834683705952
Cl         -7.41133589645968  -27.78422162083551   -6.96133629215633
H          -7.00992269385650    3.56610030128163   -2.73514396414283
H          -7.30863237432369    3.64701748965760   -5.16455322927415
H          -7.15068068371184   -0.63302531197967   -5.40553263690224
H          -6.53146030618491   -0.65066434313592    0.85738469993277
H          -6.45136283021878   -2.58645990557546    2.24232748681508
H          -6.37960482659299   -8.79787758531021    2.38059174946602
H          -6.59408215460920  -15.47769638509589    0.32861317580119
H          -6.73963729302658  -20.54494591380472   -3.22860921511450
H          -6.93271993312163  -19.99066267568959   -7.05259622032638
H          -5.42106488981393  -25.00594051723559   -3.54994559845619
H          -6.18697858215775  -27.13609554405457   -4.50607666804063
H          -7.54701300598776  -25.14084936589761   -8.05202994694455
