92
 SCF done       -197.280571491806          0.000301976484
C          -3.91392172605343   -0.32046583224964   -1.83202563878837
C          -3.76653183041824   -0.86261643288443   -3.18728490475493
O          -3.97606585438752   -2.00521889610394   -3.55424999894791
C          -3.31149883068342    0.25737074092142   -4.03042670555089
C          -3.18373454708899    1.41287433132900   -3.23887038500752
C          -3.54798175925618    1.08679280117241   -1.86177676268796
C          -3.53033086784782    1.96502554685151   -0.81143371128607
C          -3.15474936435072    3.32182971679133   -0.92236897328927
N          -2.85956103426570    4.43054948694831   -0.94189939503537
C          -3.87269857601237    1.66438049087606    0.52472712692054
N          -4.13379805087790    1.50322323620105    1.63116729574525
C          -2.76506407778937    2.59641298687576   -3.83060424293809
C          -2.48410664556718    2.60376783156856   -5.18826215883455
C          -2.61628757432527    1.44980620704101   -5.95404770910968
C          -3.03459226991579    0.25359814617101   -5.38178799722457
Cl         -2.25622846342691    1.50536789701067   -7.63619110620101
C          -4.32985756896577   -1.02632789550707   -0.73349967391472
C          -4.69053127282875   -2.37784744926148   -0.60347488090153
C          -5.08735576624572   -2.91559760101895    0.62769968462558
C          -5.38615223248960   -4.26207100657928    0.54649934704126
C          -5.21737103803260   -4.76604100616292   -0.76477196086608
S          -4.69959224169285   -3.59046658401754   -1.88257214407604
C          -5.53387161820290   -6.14538095449183   -0.74400564094748
C          -5.90040008395725   -6.51764930471878    0.56524416959880
C          -5.82189715725692   -5.34343889607139    1.42006073864841
C          -6.09125280252055   -5.26292181345251    2.75290934478323
C          -6.50806029841977   -6.36480941508808    3.53277801367689
N          -6.84720608471743   -7.23167966256086    4.20089450481900
C          -5.97059905840729   -4.04959014718249    3.46614184021866
N          -5.87489499025396   -3.07004265069857    4.05352185658098
C          -6.21723422884130   -7.86893891484280    0.67957540251102
C          -6.09150044958549   -8.52525854893410   -0.53498996780944
S          -5.58158700244473   -7.45579947101385   -1.83269797269175
C          -6.30878760156412   -9.90145362399013   -0.79362912942341
C          -6.68427589778067  -10.91287193069091    0.06391715023141
C          -7.02312256757043  -11.08518593854157    1.48516791714420
O          -7.07219645634255  -10.28220657374844    2.38318933798309
N          -7.29726686249975  -12.44363160908507    1.62726227706038
C          -7.67427029773520  -13.03698868619219    2.88667258152360
C          -7.16871472081319  -13.16732077784293    0.45291201773797
O          -7.34758708778839  -14.35820647766891    0.33832253697004
C          -6.77744097371600  -12.18027093936910   -0.55565141179337
C          -6.48304835830597  -12.19099573013718   -1.89821910107870
S          -6.07942340785328  -10.56078724279156   -2.40688886458559
C          -6.46271123118469  -13.27811445905622   -2.80374835459557
C          -6.14874664167444  -13.21764487098204   -4.15292827671062
C          -6.19966718248213  -14.47236674426604   -4.74896448698871
C          -6.55801641697452  -15.48921741978232   -3.84066293500685
S          -6.83627958661667  -14.90697946161985   -2.26131193788922
C          -6.57054098752623  -16.72483285595685   -4.53910745588410
C          -6.21649345476149  -16.48385228597204   -5.88210123560984
C          -5.98779396077978  -15.06071945183042   -6.06074346499230
C          -5.67467459052056  -14.42259609030538   -7.22478614403612
C          -5.52738208077583  -15.13435799021502   -8.43424290122262
N          -5.40710628554954  -15.73050441614531   -9.40630299032194
C          -5.48276088388076  -13.02644164113332   -7.28639952262904
N          -5.32018460535624  -11.89242355794507   -7.32877155597431
C          -6.20949164905407  -17.63555784826443   -6.65674989575676
C          -6.56238021337016  -18.76076946233417   -5.92507920584980
S          -6.87533946201267  -18.37015312701995   -4.23784455785743
C          -6.63197819916988  -20.10586202506240   -6.35097816143468
C          -6.70830988271684  -20.59616285774373   -7.61869310896053
C          -6.32630206592751  -22.01819363894671   -7.85824662044648
O          -6.17155425583584  -22.87416973209557   -7.02079460625672
C          -6.12619327224953  -22.11967438433771   -9.31973062356475
C          -6.49646329721564  -20.90608398218916   -9.92855887063660
C          -7.00812260798622  -19.99838304012588   -8.90480972996063
C          -7.83762465150721  -18.93517759444564   -9.14550778423687
C          -8.19872139650662  -18.49665171559084  -10.43782327637554
N          -8.52959893673383  -18.10280382775231  -11.46303684677444
C          -8.50522119832586  -18.21263722638813   -8.13702375800304
N          -9.08682066553518  -17.61185325661615   -7.35042425004330
C          -6.35294222511758  -20.75283935802394  -11.29945443960013
C          -5.85555068635439  -21.81396567056685  -12.03965836899846
C          -5.51142719903732  -23.01434120903745  -11.42554334369437
C          -5.63926203470529  -23.18356625931037  -10.05102314142120
Cl         -4.91017477504495  -24.31048097512240  -12.38567150777531
H          -2.65396917317157    3.50537483838088   -3.26295153827210
H          -2.15782776844122    3.51670705477779   -5.66109725801929
H          -3.14138227863257   -0.64773282980016   -5.96427567105291
H          -4.39923704861272   -0.48309339000060    0.20124086285857
H          -5.14047687200616   -2.31911884393578    1.52134146963760
H          -6.52088071092960   -8.37033292955751    1.58238105728053
H          -7.66871375518313  -12.24957735247970    3.63826950560086
H          -6.96453625459648  -13.81934096710781    3.15714212150076
H          -8.67031409921198  -13.47463048169776    2.81129264024936
H          -5.89693216212880  -12.29805348723083   -4.65089952948257
H          -5.91771149856213  -17.67545860924885   -7.69017690287511
H          -6.54137234101438  -20.86017405784806   -5.57517371527364
H          -6.60429906003989  -19.82762416270769  -11.79225017664240
H          -5.73192143613348  -21.71178338368655  -13.10631199662947
H          -5.36962935964204  -24.10879036839776   -9.56699021542276
