88
 SCF done       -189.505799167603          0.000462897413
C          -1.04403188995048   -0.98676831002873    0.64935489818696
C          -2.15943273368585   -0.31249832356609    1.35781189866300
O          -3.26727232024864   -0.73542507985734    1.60228229342583
C          -1.62879781852354    1.00680374607416    1.76207246871553
C          -0.31032363721690    1.15391732486033    1.29958454746976
C           0.06467537896649   -0.04628557764568    0.56044943335283
C           1.22854761749640   -0.20694809026612   -0.14428140192103
C           2.25850421241261    0.75750687064661   -0.19754448783002
N           3.13635578254830    1.49195162906093   -0.27971589303066
C           1.56741503087665   -1.31945566580897   -0.94440290110196
N           1.91316580667189   -2.17329215689211   -1.63047562708748
C           0.38408592238053    2.32202966493066    1.58441636817897
C          -0.24880959930054    3.31428116710393    2.31605214778916
C          -1.55798754425790    3.15281571418344    2.75965352770140
C          -2.26912026901066    1.98946652179298    2.48829171810931
Cl         -2.30492526912378    4.41438084850793    3.66085917327589
C          -0.96618592029111   -2.29145045363351    0.24844103535624
C          -1.93644068905870   -3.31353711501627    0.20987460621578
C          -3.31464010525569   -3.31948765914219    0.38840783700790
C          -3.85964818658095   -4.58407286100350    0.20965628209504
C          -2.89340043121824   -5.56463770008071   -0.10627114231346
S          -1.32534043957791   -4.92432326319373   -0.20084163254650
C          -3.54939084091982   -6.81253743029982   -0.24970509741864
C          -4.92380369038260   -6.62660041203446   -0.03142530775737
C          -5.16999608946371   -5.21811838594543    0.24014930147876
C          -6.38047126761745   -4.62224372125228    0.42903530896341
C          -7.58863418313967   -5.35104956783300    0.35993844887155
N          -8.57453841452306   -5.92941722722850    0.27454634886871
C          -6.53309280969860   -3.23541745898967    0.65118601888151
N          -6.69285997348909   -2.11287793901035    0.81599832901611
C          -5.65617857447861   -7.81109975718704   -0.13837604131153
C          -4.84699800544195   -8.88839278485598   -0.43733562087948
S          -3.16071304930511   -8.43653938217522   -0.59874949625963
C          -5.22555077471291  -10.25350934746781   -0.62715029310123
C          -6.35160376675203  -10.89994930563775   -0.16768124595314
C          -7.33946170216565  -10.25382583884465    0.74684912183890
O          -7.05901433299994   -9.84288479812131    1.83397873596223
O          -8.59049613137482  -10.16337263923541    0.26031917276712
C          -6.41903895146379  -12.26268268637527   -0.59000838710109
C          -5.33665227088138  -12.60225674221701   -1.36662014046922
S          -4.24411701255330  -11.31398369284219   -1.59766266842402
C          -7.43671063326414  -13.21872271933265   -0.22230747346380
C          -7.71557869624631  -14.39709335344500   -0.88182386763272
C          -8.71304055018070  -15.13315250804127   -0.23732250885476
C          -9.18628697169833  -14.50481062210589    0.92489558040703
S          -8.40923631187902  -13.01643999714467    1.22343798855828
C         -10.18618859254901  -15.32789576312942    1.51095810805877
C         -10.33534604766522  -16.47699661965571    0.71088881154349
C          -9.40927877961035  -16.39722207468896   -0.40609868785419
C          -9.21151323876729  -17.33673042852728   -1.37491107478946
C          -9.94337764500434  -18.54290837205258   -1.39014020499121
N         -10.54887406045218  -19.51654003321158   -1.38930050453449
C          -8.26655308030081  -17.15719326841640   -2.40639265787355
N          -7.49953930541896  -16.99637164012414   -3.24326378569928
C         -11.26561419817764  -17.37406294210142    1.21971407099679
C         -11.82985213653012  -16.92658168380414    2.40512296752571
S         -11.21077472884192  -15.34505728314523    2.86649299332330
C         -12.81563887627175  -17.54557614884823    3.20613316028909
C         -13.18789769869347  -18.85432281629368    3.24081192100593
C         -14.50927053029840  -19.20472514902070    3.83743929448121
O         -15.21516878312514  -18.48265696086279    4.49960723530416
C         -14.77572744008643  -20.58971273656222    3.39410979399344
C         -13.65354383947201  -21.08468106951446    2.70406131637741
C         -12.59756099738916  -20.07546806259159    2.72874588276231
C         -11.26447945375510  -20.33688156722208    2.55202543915979
C         -10.75218765243125  -21.59880806876103    2.18042847053482
N         -10.27881876657098  -22.60078452733747    1.88436357225634
C         -10.23366115384193  -19.41264670494300    2.81192949217844
N          -9.35620157276782  -18.70656463078389    3.03482095565455
C         -13.68943175414630  -22.36015499291882    2.16021971872813
C         -14.83492897928047  -23.12284547930006    2.32512941932306
C         -15.92930037853541  -22.62612536557711    3.02661574996968
C         -15.91638752268043  -21.34586147809636    3.56963869815755
Cl        -17.32561286712766  -23.61398744579349    3.22020172869298
H           1.39950216876123    2.47157377249230    1.25651166747966
H           0.27817253446232    4.22664505718753    2.54716652308259
H          -3.28362817359586    1.84995899080864    2.82667496022435
H           0.00770881719778   -2.62659387428224   -0.08972192403518
H          -3.86729750801153   -2.43389361385803    0.64581543144760
H          -6.72024484441414   -7.88091432136490   -0.01220259754151
H          -8.67877808853405  -10.51174408767420   -0.63707898733164
H          -5.11942301836142  -13.56056289443723   -1.79323454923049
H          -7.23083123124807  -14.69431503908495   -1.79313063410806
H         -11.55885405337488  -18.29001669303922    0.74001009375320
H         -13.40369367439433  -16.88756831566736    3.83900005714906
H         -12.85628422563498  -22.75989095622640    1.60522419424836
H         -14.88233595236180  -24.11564922848053    1.90612081048445
H         -16.76204056399211  -20.95145839631346    4.11031171327482
