129
 SCF done       -270.183740412057          0.000614004090
C          -3.17503459165311   -0.59411872670812    1.12451746897307
C          -2.94767489223728   -0.80537409373406    2.56552219688638
O          -3.00887715376565   -1.84743059178846    3.18497900625510
C          -2.62436333548348    0.52392032425833    3.12151810075198
C          -2.63163798609816    1.47868600975907    2.08945924128922
C          -2.95177285474529    0.81277110223936    0.82977314990956
C          -3.00708302030665    1.42454731618541   -0.39498594112017
C          -2.77002364005295    2.80087872999080   -0.60210361019789
N          -2.59164545232344    3.90864383233355   -0.84331745674437
C          -3.29280402732222    0.79576107074306   -1.62570238164214
N          -3.50815379285952    0.36669995931666   -2.66921760999812
C          -2.35839019656774    2.80589296926863    2.39162973967819
C          -2.08553299584508    3.15108118109050    3.70604515110618
C          -2.08187480869429    2.19085814218097    4.71281427123360
C          -2.35227509519522    0.85637967690066    4.43229037329460
Cl         -1.73781752943204    2.66561562556361    6.33144600972163
C          -3.55579715292430   -1.54619256981428    0.22153164379635
C          -3.80536575457768   -2.92442299782298    0.39001742241798
C          -4.19778592257739   -3.71980098178794   -0.67297916206391
C          -4.40096442581367   -5.06594256805295   -0.34201077064988
C          -4.85006671677842   -6.11478545469372   -1.18522475347657
C          -5.03755497574498   -5.94374437200124   -2.60868015191404
C          -5.97624041539815   -6.52923161786908   -3.41189332121480
C          -5.80782774509218   -6.20561883284060   -4.77414003030786
C          -4.74479451689182   -5.38953493301370   -5.03687296572384
S          -3.92936909458536   -4.99278328586362   -3.56475106083610
C          -4.26847327208433   -4.86885259476755   -6.34242012023778
Cl         -6.86219483051070   -6.80454842753594   -5.99571279326863
C          -5.06953084974424   -7.34076418281237   -0.57483931234022
C          -4.81622981647876   -7.58011045766318    0.80404899899864
C          -4.35748238310684   -6.53906975650577    1.64362334260814
C          -4.16238301249118   -5.29797777128910    1.03991407033035
S          -3.67325232428971   -3.84764504788009    1.86839372293857
C          -4.11144423805583   -6.73080409645158    3.05482098106165
C          -3.14864762085295   -6.14067035464563    3.82847162377623
C          -3.21701762973874   -6.53305367836814    5.18016299140029
C          -4.23030285857155   -7.40435592950811    5.46739481301619
S          -5.12302983367737   -7.76366115834851    4.03353989028300
C          -4.58395067566792   -8.02938726007796    6.76556188299041
Cl         -2.10903692499330   -5.95296298893850    6.36112036131678
C          -5.01671143347133   -8.93126500789091    1.14144325370855
C          -5.44349665282818   -9.71423769189655    0.09688544184217
S          -5.60779166927129   -8.79243061905822   -1.38029187623471
C          -5.74665821204630  -11.10863580593599    0.10595561617189
C          -5.59666042856701  -11.95693823058729    1.22721539348516
C          -5.89999424974335  -13.36028492667620    1.15133677469797
N          -5.72739240425760  -14.13634958070477    2.24068549012887
C          -5.29878787315300  -13.61724817808063    3.34349117710537
C          -5.01089924033615  -12.23092116896209    3.42076381514684
N          -5.15587497520243  -11.45258918564735    2.40000293328270
F          -4.58156485417255  -11.67866011788029    4.55634248385707
F          -5.13982267494403  -14.41695419054323    4.39400266938760
C          -6.37787873420921  -13.98864848644607   -0.01875583257201
C          -6.55632425089926  -13.13980620182888   -1.13272854643747
C          -6.23567726067973  -11.73466095974221   -1.06113584163201
N          -6.46731712341981  -11.11605931783773   -2.21956843822334
S          -7.03213133566935  -12.17336616692051   -3.28315064631175
N          -7.01134440797043  -13.47309093267110   -2.34357830538158
C          -6.65477724747916  -15.38713020882878   -0.05350689449790
C          -7.13898808056812  -16.09423720560365   -1.12842915113268
C          -7.31527270135523  -17.46700058035748   -0.87256784873269
C          -7.81149989143755  -18.45663286396895   -1.75356688602340
C          -8.34472818166395  -18.09276428634359   -3.04669402024494
C          -9.08868075173071  -16.98870732164380   -3.36065686354010
C          -9.44165512509588  -16.94020460067287   -4.72464636683974
C          -8.97909283070069  -17.98955475128659   -5.46641884469156
S          -8.08849823177717  -19.08017639364862   -4.46002923082656
C          -9.16555347557280  -18.25839332602905   -6.91405113436259
Cl        -10.37436186890836  -15.65166686431190   -5.38456989912279
C          -7.76557420742915  -19.76786916605055   -1.29427982421613
C          -7.33013474092887  -20.11327746461629    0.01258371215186
C          -6.92504300726468  -19.10935085901454    0.92198673120010
C          -6.89653455744093  -17.80916532631467    0.43990323519623
S          -6.38147663338214  -16.40426097940937    1.33705495920596
C          -6.58131339189193  -19.44360732875702    2.28657135910623
C          -7.21381486255273  -20.33398177751606    3.10868848906055
C          -6.60929560479596  -20.42721211077301    4.37988729476857
C          -5.52103128616297  -19.61781181677825    4.54391671978314
S          -5.23122878227529  -18.70622005519884    3.10170186339392
C          -4.65239409964270  -19.46013374473467    5.73674827830713
Cl         -7.20589031991007  -21.48943820297430    5.59929605325704
C          -7.35818046459054  -21.50440190591697    0.22741368386815
C          -7.82769659038124  -22.22342210377169   -0.84434175125803
S          -8.23223711133531  -21.18057233436911   -2.19299425505423
C          -7.92291950382296  -23.62731958449713   -1.00764769979196
C          -7.95166179762621  -24.60743084052953   -0.06509765105758
C          -7.62524606120560  -26.00352107623648   -0.47522223455942
O          -7.54812137543393  -26.42651951906305   -1.60356290396593
C          -7.36772178604991  -26.72625219794914    0.78967093697473
C          -7.64691232321461  -25.87912256581070    1.87779704060965
C          -8.15774034568611  -24.60838610542510    1.36919857225044
C          -8.91940800054823  -23.72797507359993    2.09045288706181
C          -9.18759925625962  -23.86737142340540    3.46910997132817
N          -9.43478677500119  -23.92909249204990    4.58774620454941
C          -9.61159297129173  -22.63749086121986    1.52623406959870
N         -10.21836939903458  -21.75111673307959    1.12164708223705
C          -7.44116205939742  -26.33344107351637    3.17197932208660
C          -6.97534222118706  -27.62549680175946    3.35890419526567
C          -6.72256275299008  -28.45729939837612    2.27271673316034
C          -6.91211810522497  -28.01627818361415    0.96759409660958
Cl         -6.16003277891315  -30.06052718751909    2.55186035169285
H          -2.35578006719398    3.57065612916517    1.63268288849859
H          -1.87290432314390    4.17869330081416    3.95571640126313
H          -2.35306167297034    0.10210210392174    5.20314757529409
H          -3.70350418640536   -1.21974251132537   -0.80082552941129
H          -4.34668845816154   -3.31195891373542   -1.65625695288438
H          -6.78211911917779   -7.14062338835033   -3.05223482271310
H          -3.31723298328277   -5.32763032010272   -6.61367833153449
H          -4.11837206120082   -3.79157533928978   -6.29423951270338
H          -4.99814459743745   -5.09469714684081   -7.11606251031624
H          -2.39023570596260   -5.47941144678174    3.45388807624077
H          -3.92650599949831   -7.65366290548887    7.54545604732144
H          -4.48021061562367   -9.11272884803352    6.70453264068113
H          -5.61657704052779   -7.80674605565727    7.03186409348583
H          -4.84230382169553   -9.34554476308675    2.11408756761348
H          -7.32544324742583  -15.62514393463096   -2.07551700121828
H          -9.41696961271728  -16.25965798632767   -2.64396893104230
H          -9.65062692909998  -17.40783851431809   -7.38647245597702
H          -9.78542288371383  -19.14277680234569   -7.06126139596384
H          -8.20698312964747  -18.43788217077409   -7.39833883809926
H          -8.11569641822644  -20.85453664918279    2.84446541607221
H          -5.03649517571508  -20.06878239540274    6.55121990484941
H          -4.62419766211904  -18.41779753059157    6.05114280054227
H          -3.63187148024504  -19.77013360817465    5.51350484154628
H          -6.97292345468237  -21.96689286667755    1.11809235617261
H          -7.89905757825412  -23.98432512818688   -2.03309225874183
H          -7.62340318814369  -25.70283816322478    4.02715615107611
H          -6.80683620679821  -27.99510548423360    4.35816082512896
H          -6.71417867794903  -28.65313840461456    0.12009999762323
