93
 SCF done       -190.658330211292          0.000958752068
C          -2.65712895811684   -8.54088870269636   -9.89652002774980
C          -2.44566899693357   -9.91253523478720   -9.42577468235815
O          -2.53811353626752  -10.33028600340248   -8.28530224105643
C          -2.09035878716609  -10.70390408689310  -10.62021216411597
C          -2.08289485944021   -9.86407034660172  -11.74793885836436
C          -2.42795306828573   -8.50666158042489  -11.32902854727312
C          -2.50537224271105   -7.41983381129749  -12.16096410448050
C          -2.26180052926411   -7.46858752707368  -13.55024925498638
N          -2.07632333773915   -7.43482011621209  -14.68253601331395
C          -2.82971507835167   -6.10257352961896  -11.77384907214830
N          -3.08314012669642   -5.00533069248293  -11.54652084703785
C          -1.77476669367072  -10.39911151821757  -12.99040687339856
C          -1.48126365798699  -11.75132896599538  -13.08332127764027
C          -1.49304606127022  -12.56485374889718  -11.95567412435579
C          -1.79988605218687  -12.04966110864165  -10.70115903310807
Cl         -1.12256433349366  -14.23885834072063  -12.11761567644774
C          -3.00856443397764   -7.47240537027458   -9.10990958204620
C          -3.24264393817782   -7.39724288952950   -7.73024764740607
C          -3.57712916246992   -6.19026170618989   -7.10722779631164
C          -3.74997645832991   -6.32495828351543   -5.74587117276807
C          -3.55870977236509   -7.64664590607509   -5.29195731683023
S          -3.15453273329420   -8.72243678784072   -6.57663180572584
C          -3.72733144526652   -7.73394121924808   -3.90843701834819
C          -4.03008918666329   -6.48350157066728   -3.31571251540824
S          -4.13994273259446   -5.18748205623826   -4.47145233321095
C          -4.12990280968332   -6.68540975864323   -1.95279452005011
C          -3.90587036398716   -8.05946313390271   -1.73435267319639
N          -3.66256890624734   -8.67732796168953   -2.93740835175317
C          -3.28546489541316  -10.04298162447860   -3.18810480681596
C          -3.91875046690333   -8.66758073269694   -0.45226716851505
C          -4.12203971298570   -9.98573580942084   -0.03087959287178
C          -4.08385444087911  -10.12465879379749    1.40314209720305
N          -4.27361578680845  -11.29415628629800    2.00830767850206
C          -4.52456911833481  -12.33440140670936    1.24309765161719
C          -4.74749331863082  -13.63776338009481    1.90765974569630
O          -4.69224357206097  -13.77978281820664    3.11328884539645
C          -5.04649495459844  -14.75376686908290    0.99460414389527
C          -5.10313975991156  -14.63209148379046   -0.33681613476997
C          -4.86869090270676  -13.36743335122255   -1.05064845663181
O          -4.90188914987087  -13.28311252164756   -2.26259559150902
C          -4.58399780961732  -12.20147933617509   -0.18148096455554
N          -4.38387066032226  -11.05371956443590   -0.78988726794428
C          -3.85270445043691   -8.92593524301056    2.08191109446280
S          -3.70119104500799   -7.63229899030904    0.94170616787036
C          -3.74721537680133   -8.81199474713692    3.47793218717323
C          -3.49460239171392   -7.68366541451881    4.24208788472786
C          -3.41599131265586   -7.98904848775044    5.59444522192632
C          -3.61131045331061   -9.35349172306288    5.87162396339680
S          -3.90542449810372  -10.27089383640467    4.43724487353326
C          -3.49258518330957   -9.62103923869947    7.23646280116799
C          -3.19890922525146   -8.45852682011471    7.99306972685484
S          -3.09839062232696   -7.02183462050124    7.01652637814648
C          -3.04445302467021   -8.84330185366566    9.31049840277592
C          -3.26190009268452  -10.23424990576915    9.34731807606388
N          -3.55684256683186  -10.67605880515615    8.07489199280348
C          -3.77229913778264  -12.04200557711033    7.68225569754768
C          -3.30385334373401  -11.09206694167669   10.46763127070417
C          -2.74133088727960  -10.90465195790404   11.69604288195169
C          -3.26293424844314  -11.65290559521033   12.86759541591732
O          -4.03001367007145  -12.58797522703099   12.84933757773087
C          -2.68239794070061  -10.97240191295671   14.04784872891338
C          -1.78566156554036   -9.97564154473397   13.61959375702810
C          -1.70166977625462  -10.01399436139813   12.16182636163416
C          -0.66436705170978   -9.51881864665405   11.41391196708738
C           0.37326198828810   -8.72258108444560   11.93819802506639
N           1.22610095817744   -8.05152176226233   12.31306071389198
C          -0.46905099505650   -9.83833741982853   10.05501842705281
N          -0.24088625233331  -10.12495986380447    8.96695629892668
C          -1.13644020056870   -9.18684283592545   14.55700445089753
C          -1.38663776236531   -9.40744700353356   15.90276826955854
C          -2.26538122168946  -10.40552505760051   16.31005229691600
C          -2.92935507046811  -11.20407333301358   15.38498168017511
Cl         -2.53671182964692  -10.65437746380286   17.99271854366530
H          -1.75822879205966   -9.79205341049199  -13.88042947134286
H          -1.24021105124800  -12.18109326764057  -14.04287652658068
H          -1.81363457819185  -12.67098033982921   -9.81983400499165
H          -3.12770828768662   -6.51811858192339   -9.60824794952111
H          -3.67758840245192   -5.26831630902595   -7.65076152172388
H          -4.35550281988745   -5.96423141255053   -1.19331896167968
H          -4.12634013207348  -10.72176067960475   -3.04394536329533
H          -2.48788170334850  -10.34235963492237   -2.50810863633897
H          -2.93053061801140  -10.11936446536705   -4.21423004880279
H          -5.22159735914413  -15.70535343587461    1.47830012105155
H          -5.32466218075791  -15.48110075557914   -0.96937966684896
H          -3.36881633567688   -6.70417418319646    3.81834871496522
H          -2.84656368933323   -8.21443619854158   10.15499093601513
H          -4.66673395309310  -12.44388258726943    8.16296163623898
H          -2.91420623747283  -12.65699955412651    7.95853679084054
H          -3.90529717710505  -12.08360680129454    6.60265465417120
H          -3.92852653619449  -11.97566582315899   10.38334986201547
H          -0.45484424939735   -8.40569091089600   14.26096762574165
H          -0.89409334279971   -8.80068476248377   16.64622773466661
H          -3.61228148902431  -11.97950367397993   15.69371829174535
