97
 SCF done       -197.161032157592          0.000863673806
C          -2.70089802005213   -0.56097497221859   -0.28020045367896
C          -3.02767639056979   -0.52282913326772   -1.71310429612736
O          -3.53087864306537   -1.39802479365567   -2.39168943097605
C          -2.55839522660797    0.79176463196255   -2.18356377163945
C          -2.03577177360434    1.52804465064967   -1.10135600624220
C          -2.24384341932125    0.75720159110211    0.12849719150354
C          -2.21805902989069    1.20881390168005    1.42668299187767
C          -1.52395102399041    2.39952846612946    1.95434098173876
O          -0.66853276962342    3.07393263044259    1.41727353018249
C          -1.98201340480750    2.56471950635367    3.35398657253758
C          -2.87327331440588    1.54048764450338    3.67957934480310
C          -3.03735956130976    0.63059316240864    2.52223213439330
O          -3.77303387790929   -0.33352848191104    2.49119977380961
C          -3.45131466145562    1.47024823073598    4.93332042362730
C          -3.11094395957825    2.44479762693356    5.86237356476017
C          -2.21993787585738    3.46004657169404    5.54072601129114
C          -1.64129794958015    3.53225632439019    4.28012349070047
C          -1.51603972308968    2.79110946210433   -1.33974179575650
C          -1.53446360894184    3.29027160510491   -2.63623207278952
C          -2.06110538294538    2.56002021794896   -3.69086542551283
C          -2.58140296732180    1.29258274418530   -3.46995868875783
C          -2.60450213016730   -1.69046057299604    0.48481986675673
C          -2.99434727480289   -3.01253253728558    0.19892418811753
C          -2.76234649300638   -4.05655350374516    1.09802160180102
C          -3.24246019452283   -5.26730186368651    0.63735336235460
C          -3.86053762872745   -5.17254123008292   -0.62531656801336
S          -3.83175902398449   -3.55979319193717   -1.24310191849878
C          -4.32525031261031   -6.39075408357629   -1.10418407037408
C          -4.07710748330776   -7.43185186800032   -0.22097273352394
S          -3.25908927419334   -6.89472337033967    1.23437358071869
C          -4.39299562747944   -8.80444529667754   -0.41826147496423
C          -4.07385507059319   -9.78751988550740    0.54426071600065
C          -4.32186052999271  -11.18476399294241    0.33428397478268
N          -4.00170063638183  -12.06349297410426    1.30496735683835
C          -3.46988353242394  -11.64127950283764    2.40456977973104
C          -3.20705751850602  -10.26098412367444    2.60552303850486
N          -3.50754553830777   -9.38857275971691    1.70026263075930
F          -2.65475590260497   -9.82685822396179    3.73460094315336
F          -3.19324179225061  -12.53755877344755    3.34838456361417
C          -4.90260340921026  -11.68539369596057   -0.85053322804744
C          -5.27420676616041  -10.70349599407915   -1.79928003067221
C          -5.02154675500839   -9.29354556328153   -1.58972572927012
N          -5.44533304201626   -8.56522222759370   -2.62339474826098
S          -6.08725610658577   -9.52900971025157   -3.73094054588952
N          -5.86689399277436  -10.92471704529934   -2.97364422055820
C          -5.08654584208772  -13.08001553329537   -1.05981617048436
C          -5.76247023431165  -13.68155282828767   -2.10873111778641
C          -5.76818980429010  -15.06713139631341   -1.99380063631718
C          -5.07279104094137  -15.54311388909216   -0.86929327133528
S          -4.42323913933484  -14.24839056624119    0.07057959444631
C          -5.16863010240517  -16.92104758091242   -0.69694291603125
C          -5.94566114671759  -17.51191824632552   -1.67304229610182
S          -6.50159247583352  -16.36066263948391   -2.86891464471182
C          -6.43117892699708  -18.85011651124873   -1.72594591199539
C          -6.75005145500365  -19.63308082209744   -0.66753171115570
C          -6.94541898631350  -21.09462248185225   -0.87179739373423
O          -7.12090528120424  -21.66631378857690   -1.92249836892865
C          -6.79700929813744  -21.68038272400375    0.47152535294419
C          -6.62387394523532  -20.65808306973710    1.42909893290417
C          -6.75174087554008  -19.36018256146515    0.76793578702980
C          -6.99755094931757  -18.13006103084580    1.32094069926095
C          -6.58126138802509  -17.62030483984987    2.64519469199478
O          -6.09304920744794  -18.22234266327440    3.57728375715686
C          -6.76007694643486  -16.14825916992143    2.58185588211729
C          -7.40143505711850  -15.79445185399489    1.39255736692589
C          -7.64434108578093  -17.01129574320835    0.58801223599198
O          -8.32534360283483  -17.08236262862646   -0.41280927521907
C          -7.67160814268336  -14.47215399193430    1.09418551589337
C          -7.26125080832240  -13.50321332578835    2.00011454123610
C          -6.61521566248935  -13.85379377915541    3.17763155052341
C          -6.35898692675842  -15.18319393159105    3.48644758963318
C          -6.46799911574141  -21.00527105245434    2.76400875594910
C          -6.47678828591269  -22.34899331642283    3.11171599418614
C          -6.64917783001421  -23.34621470549911    2.16213437773795
C          -6.81293821796983  -23.01608428773347    0.82496158925058
H          -4.13932166780080    0.67446169360442    5.17425429771653
H          -3.54124079722141    2.41049739096443    6.85223630226468
H          -1.97423495012864    4.20489935963348    6.28309744290847
H          -0.95039847301541    4.31938182204092    4.01972931255201
H          -1.07902005856793    3.37216844895855   -0.54521079792707
H          -1.12440604460733    4.27169771234275   -2.82347655566168
H          -2.06359294298831    2.97778416417126   -4.68647287260983
H          -2.99901744553613    0.70206055817133   -4.27108275118055
H          -2.12887747549105   -1.58727647447190    1.45208893224343
H          -2.26918636135180   -3.90998578618814    2.04159708277209
H          -4.82000938713856   -6.53755104932558   -2.04529065557066
H          -6.23184180304002  -13.11972374136313   -2.89365281194621
H          -4.69355813740008  -17.46935299756966    0.09578872142940
H          -6.58546333994379  -19.28483586287260   -2.70780685368983
H          -8.16604208555667  -14.20921844935075    0.17126268690518
H          -7.44166077086899  -12.46057271276205    1.78148222357794
H          -6.30714371047336  -13.08088988652249    3.86560711234008
H          -5.85827570030164  -15.46247299432994    4.40019869621953
H          -6.32327563878310  -20.25035632621611    3.51827343354370
H          -6.34920940985634  -22.62167970357342    4.14884708887980
H          -6.66024875142277  -24.38217736277812    2.46673302601020
H          -6.95739464703120  -23.77127644097196    0.06752203227781
