109
 SCF done       -212.986022302828          0.000724853149
C           2.23629074465567    1.49271666063810    0.50965058462262
C           2.56626380212435    0.66982043144321    1.55805353616532
N           2.58410546707861   -0.66415407933468    1.50761682145249
C           2.27304932019875   -1.30798371295112    0.40166708854683
C           1.90671724501677   -0.57857154332876   -0.76557671363983
C           1.89314866608675    0.85856604144729   -0.69422962177596
N           1.53431855540241    1.41202241564481   -1.85492273842308
S           1.24652135479095    0.24142029721750   -2.91441146694352
N           1.55756289315057   -1.02323180851268   -1.97011111109791
C           2.32758439020280   -2.74008726512687    0.43133577500440
C           2.08902476817648   -3.62259883326417   -0.58411365676109
C           2.24893532747355   -4.97259072728239   -0.20071089846966
C           2.10611047514086   -6.12696130557424   -1.00455958344197
C           1.81414049322819   -6.05902538728058   -2.42104986198038
C           1.00698403616192   -6.88690932790373   -3.15132671920920
C           0.96668563242418   -6.56515872263484   -4.52150829419865
C           1.75061147359932   -5.50348339474735   -4.85334469219320
S           2.55421857093931   -4.86670222188127   -3.45662070931843
C           1.95933747883559   -4.88725055528810   -6.18970297255976
C           2.25836699074226   -7.34919617389957   -0.36147781013314
C           2.56389704278122   -7.46372965424234    1.01880073336555
C           2.78013405851337   -6.31029838454289    1.80642444369214
C           2.58546611338219   -5.08740414513019    1.17442856135934
S           2.75282064272391   -3.52371098093604    1.92699502790435
C           3.21151985951332   -6.42674275090781    3.18080442413695
C           4.12535955209326   -7.30552337058957    3.69795397683338
C           4.32637188768979   -7.15118382276492    5.08171518369497
C           3.56505850498342   -6.16499007655829    5.63207592256200
S           2.58705276241210   -5.38771349948920    4.43125662797127
C           3.49814849852889   -5.73599889622027    7.05300410349178
C           2.59031884025363   -8.80667733069809    1.44350541075771
C           2.38081512753565   -9.71324754587706    0.43526013715042
S           2.14319130077051   -8.92235370397447   -1.10934676222552
C           2.32869608478591  -11.13860314250433    0.51385057499943
C           2.23790174201773  -11.87150576701944    1.71964729579724
C           2.16900310857661  -13.31263391800715    1.74297304443323
N           2.05081723338634  -13.93980722993317    2.93341473250667
C           2.00132988458304  -13.25174307433029    4.02486490238556
C           2.08090308507277  -11.83971164266036    4.00282091329330
N           2.19328465504817  -11.19598838506080    2.88882892142704
F           2.04635883018437  -11.12361453057260    5.12909505671793
F           1.86746109171655  -13.92362606428187    5.17160138742433
C           2.22894821348071  -14.09050484319559    0.56312139537083
C           2.33083407335324  -13.35554179490341   -0.63578607331424
C           2.35378544334092  -11.91610499733171   -0.66180652782534
N           2.42382581983449  -11.44628696478768   -1.90798150240559
S           2.46405231364557  -12.67876425697832   -2.93556181152547
N           2.39245965266667  -13.87143221370284   -1.86391239342164
C           2.18933322664030  -15.51745402415106    0.52720464149728
C           1.92784362250478  -16.39048210558300    1.55330973237190
C           1.96648289340328  -17.74623617121964    1.17559728753752
C           1.71258264750092  -18.87604057924716    1.98742177364450
C           1.25674829020027  -18.75839677563496    3.35413417856666
C           1.57262398366312  -19.54643121742915    4.42778682511645
C           0.90839540395672  -19.17259788613728    5.61083630991468
C           0.06896267392173  -18.11200330440888    5.45139795169409
S           0.09635130960129  -17.54047943453304    3.81845516886574
C          -0.78086485082122  -17.43851574958738    6.46682056443848
C           1.90122592005885  -20.11472813659469    1.38402474398281
C           2.28662542652704  -20.27168769796187    0.02937209130412
C           2.47861954008437  -19.14115586003514   -0.79429991475218
C           2.32832924762805  -17.90157943788251   -0.18730839746847
S           2.50467218103208  -16.35631828476987   -0.97621960076291
C           2.81213040234162  -19.28563930005834   -2.19601830317662
C           2.31113700183952  -20.17822353840724   -3.10204529254912
C           2.87428698404255  -20.04486082762874   -4.38657971754074
C           3.80964413893968  -19.05970332987242   -4.46763568373746
S           4.00354307595105  -18.25724007321579   -2.94334989719944
C           4.61804337233190  -18.64498548132101   -5.64452269509537
C           2.43326627472544  -21.63342150283177   -0.32304241569993
C           2.13331389964149  -22.50103783750983    0.68681222285755
S           1.66961622119430  -21.66265866140190    2.15326833092518
C           2.17115344655274  -23.93586004895047    0.64317534863343
C           1.86839670364205  -24.72617549626329    1.74325257652814
N           1.88184171600211  -26.06036277112294    1.77498095114989
C           2.19823231851780  -26.74231751140607    0.70835445474535
C           2.52712335296098  -26.08931447051277   -0.49434935698464
C           2.51401623108095  -24.65077223964056   -0.53435934185530
N           2.83860856263265  -24.18778004672886   -1.74177139389780
S           3.12968821139742  -25.43552255280226   -2.71351082402301
N           2.86242200993021  -26.62239870947503   -1.67070734867319
H           2.23593627007432    2.56639375202034    0.59011251724094
H           2.84196256764188    1.08109087786336    2.51960235022230
H           1.79934292599633   -3.29274550986172   -1.56417798303684
H           0.42948295015105   -7.68089321897583   -2.71499752151435
H           0.37335019420946   -7.10538727804350   -5.23787797516318
H           1.34047646569431   -5.38841303813124   -6.93016266563884
H           3.00322780398404   -4.96789486912730   -6.49258201324971
H           1.69960816504741   -3.82919874795789   -6.17044521838078
H           4.67072809633459   -8.00847803875481    3.09416551059271
H           5.01279861783483   -7.75284575285604    5.65074655704635
H           2.52027469850896   -5.96490274074827    7.47684677965494
H           3.65480175637744   -4.66165482918525    7.13856620989868
H           4.25849216856571   -6.25283752180301    7.63356553720599
H           2.73231456335149   -9.10697529129531    2.46288162945282
H           1.72943375212947  -16.04548761624022    2.54845376896394
H           2.29102059795252  -20.34466995659977    4.38327021046023
H           1.04832581628551  -19.67552816072635    6.55121444237062
H          -0.74559895480488  -17.98590283522796    7.40558928131033
H          -1.81482596865795  -17.38102286999925    6.12833057898847
H          -0.43022379884040  -16.42089139505349    6.64073836255020
H           1.53191464936375  -20.88112599059354   -2.86827207051956
H           2.59263069722093  -20.66092565387047   -5.22235329857328
H           4.31005675583124  -19.20598803864768   -6.52395550631665
H           5.67805357988932  -18.82716622632106   -5.46516742114272
H           4.49169423074772  -17.58076555327031   -5.84103153024228
H           2.76935940064027  -21.97334253674488   -1.28448040245834
H           1.59182928812877  -24.25479921657578    2.67741607334397
H           2.19667416247051  -27.81972847910856    0.78011416434784
