73
 SCF done       -166.986245410684          0.000329210067
C           0.02367337646502    0.05777798416905    3.95838228980602
C          -0.46430638499442   -1.21010497116359    4.16532310605710
N          -0.16776312485586   -2.27477396424450    3.41759369451459
C           0.64943764623034   -2.17338839603135    2.38679097215883
C           1.22686708175112   -0.91615297337378    2.05571475802839
C           0.89607080266258    0.22102762961985    2.87189597361889
N           1.50632804011458    1.33010714054481    2.44604148354995
S           2.39462714468760    0.96943804889965    1.16017973853865
N           2.06128318523685   -0.60011258354448    1.06851774626484
C           0.91858031903323   -3.36361174074715    1.64120676902823
C           1.74326238591058   -3.53323148825459    0.54653238446758
C           1.74323808300480   -4.85659917398991    0.10933764034305
C           0.90603838289249   -5.68783723485805    0.88442204372364
S           0.12773344292921   -4.84184824871002    2.14494946747301
C           0.97534897260954   -7.00618153281217    0.37031466907686
C           1.85976844783640   -7.00636138008821   -0.72919732556216
C           2.36728639521563   -5.65737876652013   -0.92839445078408
C           3.24435861237864   -5.23929515141826   -1.88646681799393
C           3.78697398512049   -6.12010405420070   -2.84580189039013
N           4.23476930931066   -6.82596551677937   -3.63097899696385
C           3.67172584973643   -3.89830590785981   -1.98573749178822
N           4.02844684560303   -2.81246987276044   -2.07874532595078
C           2.00539915309567   -8.26097183954767   -1.30230402534591
C           1.23843708875110   -9.22283832691681   -0.65322893613239
S           0.32088989447630   -8.55288497112817    0.68493565155261
C           1.16971573999246  -10.60412986524269   -0.97274634960702
C           0.34147984447562  -11.49623881881926   -0.25436763660735
C           0.26181741155853  -12.90327019800174   -0.53408011582415
N          -0.54633189746088  -13.67199952419453    0.22588944102048
C          -1.23607730827721  -13.13524743350482    1.17870131461106
C          -1.16751871894497  -11.74324942652825    1.44641721148480
N          -0.39953138094476  -10.97562277337489    0.74478119398886
F          -1.88195922537616  -11.18895163122791    2.42035909128697
F          -2.01105453402185  -13.92975235956993    1.90766914266459
C           1.02533683934193  -13.49555637268248   -1.56898586148470
C           1.85281171240131  -12.60373315050323   -2.28936632214560
C           1.92772172901253  -11.19136638686754   -2.01226606001910
N           2.77963879174278  -10.57918924363021   -2.83598593551798
S           3.41632116448524  -11.64694869412788   -3.84482861116444
N           2.65260426094337  -12.95062186587939   -3.29842730428730
C           1.01731704541334  -14.88081098674933   -1.88923671394231
C           0.22283995164523  -15.89231193815518   -1.36204458631065
C           0.52734061993030  -17.13322228438477   -1.90517100192828
C           1.56976002178998  -17.07511433233883   -2.85370263689224
S           2.14980004798549  -15.48829093224483   -3.09218265000028
C           1.82178312361860  -18.38822518824016   -3.31804471433668
C           0.94323350275926  -19.27640889809451   -2.67050546552943
C           0.09160614306577  -18.51593750242413   -1.77134039096545
C          -0.90985151246691  -18.99859779229169   -0.98192945826074
C          -1.23976795299766  -20.37024966569735   -0.93852982761782
N          -1.51884338184367  -21.48154056220202   -0.89431254891487
C          -1.69904435609092  -18.16465149135807   -0.16048097818912
N          -2.35725087443317  -17.50361694479209    0.50577725421970
C           1.13381063301452  -20.60393120924115   -3.05401843385962
C           2.14764129761822  -20.73525357009803   -3.98182802417723
S           2.87586324749512  -19.18868377625357   -4.39508264427193
C           2.62401502924015  -21.94697421775592   -4.58014336997153
C           3.66387370579547  -21.97667808888744   -5.50162343167446
N           4.15760082749994  -23.06863263882800   -6.08571179663733
C           3.66408927424821  -24.24605782888605   -5.81083902827311
C           2.60358590572260  -24.38830615469949   -4.89715325613479
C           2.06647064814541  -23.21396535336191   -4.26356277443404
N           1.07219266255550  -23.51416833843982   -3.42859323014624
S           0.84298706876392  -25.10370053214218   -3.44432913635761
N           1.98025176626700  -25.50013059290293   -4.49997978582747
H          -0.24035364018529    0.89062111692489    4.58730382314571
H          -1.14268522802749   -1.41589147478746    4.98188806033963
H           2.30067859743104   -2.72197090062619    0.11450600192983
H           2.62737745033109   -8.50130445769565   -2.14459826994857
H          -0.52704524387268  -15.70109679260995   -0.61812700494971
H           0.58071911659877  -21.45036666115612   -2.68964774038127
H           4.14413375884900  -21.05262812403294   -5.79761327557535
H           4.09767137988187  -25.10120684936269   -6.30723928975487
