75
 SCF done       -167.550327514501          0.000842734623
C           2.89854089675003    1.14611398597845   -2.65224221072059
C           2.64729554855408    0.66054187010895   -1.39008273613222
N           2.42671156459418   -0.61974593562971   -1.08402049025808
C           2.43774636257003   -1.54550307089292   -2.02420781534997
C           2.68617999264113   -1.18037954347303   -3.37539054919083
C           2.92093350268654    0.20133571886220   -3.68870705365485
N           3.13622191104721    0.37949625687146   -4.99521244538256
S           3.05006151003957   -1.04069257409379   -5.73394957878909
N           2.73640801926053   -1.96185380830069   -4.44995591545387
C           2.19448818388760   -2.90672886402612   -1.65446389970676
C           1.93533010742327   -3.37666899047828   -0.37892426335083
C           1.73949955670476   -4.75451632687582   -0.36930542728948
C           1.85406263384690   -5.32813819933243   -1.65392716649334
S           2.20074738629392   -4.17098878959877   -2.86163856648711
C           1.63571408391929   -6.72125418784353   -1.54821727126539
C           1.38092515618671   -7.03312978504006   -0.19541252459484
C           1.44428616626503   -5.80767765225392    0.58789823876471
C           1.27027424252367   -5.68134023004449    1.93397524591137
C           1.00169493460440   -6.79316968744923    2.76214238463547
N           0.78896291788008   -7.69166193168949    3.44136891978998
C           1.35466614152277   -4.43628843249833    2.59319618312723
N           1.42066905797852   -3.43039038747634    3.13929402462865
C           1.13979411357098   -8.38323609595635    0.01247530388933
C           1.20857029818530   -9.11652844549061   -1.16776282938754
S           1.58737978434762   -8.09776435413350   -2.55519070193939
C           1.01309712651487  -10.50915774792663   -1.36572057553107
C           0.65134721844189  -11.42928169698370   -0.34564289182944
C           0.46071265912527  -12.83756773619595   -0.61266871013220
N           0.03642251459589  -13.64231694351897    0.37270674071381
C          -0.16636857887565  -13.16217623481151    1.57308474425812
C           0.09089542371157  -11.78162061961194    1.85513068775463
N           0.47386777022982  -10.97004802651105    0.90253008221559
C          -0.09230902377323  -11.28918168220842    3.17276330515092
N          -0.26374445104933  -10.95044247557562    4.25292747368040
C          -0.67290127444581  -14.01348982731517    2.58815509106222
N          -1.10176502586285  -14.65768209768400    3.43213059982383
C           0.66219372066302  -13.39993472864267   -1.90069980024585
C           0.99399927156951  -12.47468664843200   -2.91258478880545
C           1.16358401838851  -11.07132341648455   -2.65225063483975
N           1.47683075257574  -10.40116170668520   -3.76160618808894
S           1.55034636783264  -11.42077448807616   -4.99980872717772
N           1.19122558774411  -12.76506267881428   -4.19901061650686
C           0.52734807596788  -14.78048278593853   -2.20292605903913
C           0.36484340095993  -15.85076203324405   -1.33031757328830
C           0.25081500475437  -17.05907655435880   -2.00191785585652
C           0.31684341581622  -16.91854983643260   -3.40453949086789
S           0.55790607048180  -15.29976382993103   -3.88615276977988
C           0.15780511075878  -18.19682393293967   -3.99053656496034
C          -0.00765375311749  -19.14564287012571   -2.96210982369060
C           0.06377833118364  -18.46577534673979   -1.67978150171171
C          -0.00008549478857  -19.02543374478122   -0.43788470197278
C          -0.18582736840196  -20.41149931613829   -0.25239835959968
N          -0.33928211993398  -21.53834409299379   -0.10526075407310
C           0.14703465644278  -18.25878002175904    0.73857815921630
N           0.29079622281375  -17.64333312088312    1.69480082744940
C          -0.18472793127194  -20.43983413739162   -3.44719794811891
C          -0.15901939839028  -20.48267691925109   -4.82946990951785
S           0.09333552943952  -18.90112382976839   -5.54487993289097
C          -0.31565772503007  -21.62442817827812   -5.67994982370918
C          -0.51338621485541  -22.92317389213345   -5.22133686833266
N          -0.66657334473154  -23.99752578719193   -5.99605113636434
C          -0.64010077983396  -23.89890426597056   -7.29790416988792
C          -0.44715135793341  -22.65143235057790   -7.92019736926888
C          -0.28115605432765  -21.49153157996246   -7.09043311758989
N          -0.10838992022667  -20.38207393691981   -7.80643663149583
S          -0.15196144811034  -20.76901461965004   -9.36852170218957
N          -0.38926659117471  -22.34508315370193   -9.21841120260084
H           3.07008718878249    2.19076707137079   -2.84764415447249
H           2.61438344353608    1.32855068976949   -0.54032244092409
H           1.89843770205712   -2.71888757540085    0.46972073760152
H           0.92133771929745   -8.84182989418519    0.95865872965685
H           0.33019661439861  -15.72287403577712   -0.26483110887322
H          -0.32938499006269  -21.30748368705978   -2.83058153799491
H          -0.55396061335410  -23.13048634990353   -4.16199962565755
H          -0.77097153181978  -24.80321786553321   -7.87286896597565
