105
 SCF done       -200.426037425011          0.000717797259
C          -0.82535133037520   -2.81650204124585   -0.03507687567266
C          -1.40443763092990   -3.97636346375099   -0.48608668439143
C          -0.88442069270815   -5.23234214212913   -0.11073774122177
N          -0.46411210537261   -6.25357717770580    0.20082190373654
C          -2.53005233732566   -4.05007136299551   -1.32383106013723
N          -3.44489948378987   -4.17679336991120   -2.00713885518053
C          -1.20927203941711   -1.45170128102068   -0.28779493372169
C          -0.37807847941190   -0.52218813184881    0.37115581407407
C          -0.62047223451002    0.84188618600096    0.22741237000407
C          -1.67133059861048    1.26549249861271   -0.56044389362771
C          -2.48912999766687    0.34683983556543   -1.21065714805459
C          -2.26681093731523   -1.00915937443248   -1.08024868245731
C           0.67451792571371   -1.13150903427198    1.14610053475982
S           0.57504104171801   -2.88464398929651    1.00614582855071
C           1.61239933688030   -0.46905661986911    1.87402285777878
C           2.67991550110297   -0.99854503456918    2.63338491950792
C           3.05478046940396   -2.30343161159393    2.90434859053836
C           4.21865495681048   -2.41204281384393    3.67085603411368
C           4.70710185155984   -3.70935567142700    4.16063679260892
C           4.94432900030535   -4.79306930806855    3.30722548286716
C           5.26761251104250   -6.03960833189041    3.84802757913710
C           5.39388895805916   -6.20040740078942    5.20758541004877
C           5.20206075636888   -5.12822268010510    6.06657483742621
C           4.84471214040880   -3.89360049868490    5.55128398030884
O           4.59356134170225   -2.78924059100273    6.32043907447559
C           4.73063191911163   -2.89101793600174    7.71562118573748
O           4.88604893333704   -4.75401365621707    1.95102160109564
C           5.30715680933612   -3.59942264403813    1.25296547132253
C           4.74991344992484   -1.16859731405226    4.01136033441905
S           3.77666678641866    0.12212503529037    3.40079346664576
C           5.88881895208580   -0.88916137525261    4.82399826840471
C           7.00115746659094   -1.74793846332320    4.91589894026692
C           8.01085365524466   -1.56964304267394    5.91855917531829
N           8.99396861644318   -2.48627460254103    6.03161211940302
C           9.04637005013163   -3.47393211674217    5.19987526193993
C           8.11622113348083   -3.57787965902235    4.13369600736899
N           7.13411781361893   -2.74564926445847    4.01348984061077
F           8.24662508992569   -4.52250502354689    3.20370132513966
F          10.01269661815914   -4.37505961883030    5.36074877048700
C           8.01670721336606   -0.47738386231468    6.81469495734613
C           6.96792548487309    0.45541808485835    6.63804600598627
C           5.93225161476761    0.25125926368415    5.65120099449604
N           5.03423350661903    1.23670899757119    5.66141131627066
S           5.44788924223145    2.31143928243533    6.77761635403781
N           6.77330732915076    1.58663665041378    7.31757314915272
C           9.01724949499023   -0.33549978044678    7.81429446906592
C           9.07469796011676    0.61832533759565    8.81655755167877
C          10.19886966010041    0.51919240720686    9.63557269301023
C          10.37226205665760    1.31888684590109   10.85418696525933
C          10.59189736797639    0.67685554080810   12.08184955703503
C          10.77733194108479    1.43110264629273   13.23293562527546
C          10.74140269319639    2.81211034287238   13.15752948939276
C          10.51631081199234    3.46216612847873   11.96026958502548
C          10.32536941427083    2.72110233285595   10.79819526317662
O          10.14284494213767    3.25823059812959    9.56785052622324
C          10.30755915961931    4.65208541897800    9.41444983491348
O          10.60721685498937   -0.68804462670654   12.04465160961908
C          10.83894513474743   -1.39274623632591   13.23899153176536
C          11.05067151071465   -0.51297311860862    9.23758139181231
S          10.37669346604645   -1.41067765340147    7.90347469242983
C          12.32013160069284   -0.90153964291655    9.73612088893405
C          13.27525159253472   -0.08964566268738   10.25974637974540
C          14.53618421088850   -0.48119778784849   10.83822832378952
C          15.32885217785504    0.60769727135087   11.26071321674145
C          14.69753809739709    1.87760445124676   11.01103798611552
C          15.12051139622064    3.14937823135680   11.32274141116808
C          16.33585811457722    3.47565675631342   11.94338151382271
N          17.31466819133299    3.79565389006445   12.45340217697589
C          14.27807261386129    4.23853675466992   11.02803697869325
N          13.56099747996543    5.10259430364475   10.78583902398515
S          13.15657272329703    1.66541664096987   10.23222764079909
C          16.57127432500723    0.38512185199015   11.85035772003580
C          17.01351846188841   -0.91239961323527   12.01688069782288
C          16.23072201856826   -1.98732524482384   11.60759924091577
C          14.99663670646640   -1.78191217917643   11.02329144253335
H           0.00708819604421    1.56380985155645    0.72576996037460
H          -1.86009445093191    2.32225574489572   -0.67392220180603
H          -3.30563890827467    0.69541822358964   -1.82365243956013
H          -2.90353190761824   -1.71548064886201   -1.58682448248580
H           1.55660530923541    0.61144051243289    1.86888524490334
H           2.49913320888203   -3.16755767079328    2.58721586317026
H           5.43037644473050   -6.85818246282545    3.16661411718804
H           5.66042872786777   -7.16347116812433    5.61502088100187
H           5.31928545220189   -5.27259357223386    7.12811162608088
H           5.75827199507049   -3.13809457391661    8.00386907316588
H           4.04428613412200   -3.63229966831935    8.13621863528763
H           4.47775569930801   -1.90581260115549    8.10585723492141
H           5.98172942013354   -2.99192295243638    1.85725558616044
H           4.45162976778457   -2.99554226404969    0.93522354622638
H           5.83554438846850   -3.95855171507010    0.36789574848385
H           8.30868398159760    1.35905015836189    8.94822248861245
H          10.95338837006416    0.95715814470548   14.18455459458178
H          10.89624884009957    3.39325525837638   14.05386550006336
H          10.50736695670872    4.53843387212241   11.93609029586831
H           9.52490364556608    5.20793538201788    9.93999948825041
H          10.22198333662638    4.83718169957856    8.34507210921227
H          11.29134654479359    4.97748008325071    9.76521935709595
H          10.06803482931527   -1.18557290594467   13.98775359105304
H          11.82491188256696   -1.16380340981671   13.65723643947704
H          10.80067047738936   -2.44662863698743   12.96714720073359
H          12.56470279635762   -1.95030439190387    9.62471189126800
H          17.17981053127526    1.21505807292613   12.17095520095646
H          17.97585947089352   -1.09233980235662   12.47041475128513
H          16.59276395608828   -2.99453413035161   11.74850948348107
H          14.39543311538456   -2.62109595772327   10.71041310594926
