94
 SCF done       -204.385910728441          0.000446590845
C           1.47826568481505   -0.76821066992236    2.56924976414717
N           2.50105958929288   -0.54718026873428    1.59340046440544
N           2.74085528143562    0.63355251454809    1.09869285826129
C           3.73753192751885    0.43316943343110    0.22429483780784
C           4.42558635794815    1.35500582350169   -0.60255093001347
C           4.00124743377933    2.72041944918562   -0.56753751177162
C           4.44310379277181    3.79600243314596   -1.26126399082610
S           5.74304176189470    3.78176467631746   -2.45239572374081
C           5.58740411004044    5.48755711991477   -2.79182122524190
C           6.40944691873805    6.07875222133314   -3.71589353136540
C           6.38364668738561    7.43677334971323   -4.07832966825844
N           6.41297880840376    8.53405009228235   -4.41604206948529
C           7.38553162983848    5.31701305055566   -4.39245376750322
N           8.17698662071644    4.68902103337334   -4.93570810433144
C           4.54201090510704    6.07446501532692   -1.99227044147925
C           4.13481942401854    7.40671455476915   -1.99306934221816
C           3.11003724298245    7.79725765586843   -1.15399307303669
C           2.48959676126519    6.87621047019979   -0.31749146081010
C           2.88321797289718    5.55232718396684   -0.30798439478724
C           3.91392603326884    5.13861758222886   -1.14637566030148
C           5.44888440637334    0.80456467349263   -1.36509999416725
C           5.76653207871812   -0.55177040913817   -1.33157428157446
C           5.08325514955075   -1.48076752635801   -0.55958336358136
C           5.44681624916013   -2.89200195493397   -0.59315976865228
C           4.55109286664980   -3.91368778989501   -0.53407551830012
C           3.10502891269207   -3.63748064167368   -0.58372113054042
C           2.53786256003097   -2.83730596717918   -1.57524379919514
F           3.30198751366530   -2.35392507688229   -2.55888095050987
C           1.18465366577882   -2.51960163150895   -1.57285471048776
F           0.67649276458392   -1.72935238918352   -2.52086200778224
C           0.36185356608179   -3.01210024288509   -0.56489861444295
F          -0.93058990900978   -2.68304443504917   -0.53069825416755
C           0.89935437967052   -3.83766525600836    0.41781507247920
F           0.11658095356568   -4.30139320479798    1.39633262109690
C           2.25281960829511   -4.14873096464895    0.39547839816681
F           2.74590911254446   -4.91674835809567    1.36836235051232
C           4.91513371146014   -5.32058391804891   -0.42636488915061
C           4.18419639572746   -6.29593677201694   -1.09008281483902
C           4.49829418703850   -7.65285889267322   -1.05264422754283
C           5.56707148315216   -8.15604978859552   -0.32041765491119
C           5.99589906155906   -9.51728982136479   -0.22679040848315
C           5.51756667773407  -10.63210226934200   -0.82834507767058
S           4.14615368409696  -10.68876357137863   -1.93500144679058
C           4.28966701595599  -12.41090398233521   -2.18563661734183
C           3.41522007862869  -13.05509408446516   -3.02212599679889
C           3.42674053441404  -14.43123684025830   -3.30900161587281
N           3.38470558109088  -15.54623894442219   -3.58096249566073
C           2.39490481600465  -12.33486619983917   -3.67863393760788
N           1.56894301937576  -11.74054413458128   -4.20820462429067
C           5.38610611047066  -12.94890038793887   -1.42087149399021
C           5.80056610272593  -14.27801019638068   -1.37198390407628
C           6.87910540484954  -14.61745816320520   -0.57937481089756
C           7.54583629199997  -13.64862683940488    0.16216616939565
C           7.14501535435136  -12.32748520884913    0.12223971869772
C           6.06033839422593  -11.96487073625720   -0.67050746901578
C           6.30353881346534   -7.18471547029060    0.40149867497330
N           7.35001728405506   -7.33164166213300    1.22683927490204
N           7.62029052563455   -6.12182022786777    1.62660218600391
C           8.69458974546203   -5.84369331027988    2.52978035779590
N           6.87060884745134   -5.16514700345624    1.15066485591513
C           5.99599676587244   -5.79392307412339    0.34748898454601
C           6.88877578330840   -3.16950724277320   -0.70606319749147
C           7.40335691315964   -4.03666375361646   -1.66973682906393
F           6.58667907698300   -4.59415932084821   -2.56826943227035
C           8.75740324980025   -4.34541154585968   -1.72695717107506
F           9.21528885697421   -5.19911516003450   -2.64514608104088
C           9.63502626408042   -3.77568047848404   -0.81001985861382
F          10.93080784656554   -4.09180515302018   -0.83312047203241
C           9.14919889731881   -2.88471459226975    0.14197534948970
F           9.98486872042975   -2.34531078108029    1.03414840358694
C           7.79365832344644   -2.58438936146173    0.18022943773868
F           7.35290682049594   -1.75053773919024    1.12378270913447
C           4.04868170442149   -0.95764146188218    0.24484276291545
N           3.22683481609121   -1.53233216296644    1.13905513478151
H           1.56980931293990   -0.03073095455733    3.36564836342892
H           1.59967574526362   -1.77286794759848    2.96755652588369
H           0.49244947963778   -0.66715798534273    2.11150216015718
H           3.18843668337017    2.89115046148708    0.12636325465545
H           4.61225274047427    8.12457324602032   -2.63942637020455
H           2.78996367606697    8.82751413748577   -1.14976295095636
H           1.69033780824006    7.19870315152097    0.33230368130381
H           2.39348749832996    4.84761023272400    0.34515062672082
H           6.03086542200386    1.43347842124680   -2.01819216785242
H           6.56508648240382   -0.89879737862280   -1.97107189601446
H           3.34769032202542   -5.98852574481952   -1.70067328598750
H           3.87629962067923   -8.32097020942487   -1.62488584224136
H           6.84963060529528   -9.64624367602731    0.42571195167511
H           5.28755478456895  -15.03270629175687   -1.94491748323041
H           7.20531756826860  -15.64493240654055   -0.53742022083617
H           8.38726456918462  -13.93139929105288    0.77625010269910
H           7.67095435376540  -11.58544375363785    0.70176637085898
H           8.59878667414813   -6.46999663010470    3.41637261516625
H           8.64317423761646   -4.79276470073707    2.80472368595032
H           9.65198043360794   -6.05933397369960    2.05234630671987
