89
 SCF done       -163.171540712525          0.000380703641
C           1.24154065195497   -7.37767648889384   -0.53632175932574
Si          2.08054376108177   -5.69366310332336   -0.28569627887618
C           2.97811593257015   -5.03934236986657   -1.82579854210101
C           3.15528918939049   -5.62795455083030    1.27365937990240
C           4.28581497389104   -6.24879354592994    1.78445147420646
C           4.63575120813038   -5.81249111301635    3.05544034589957
C           5.67502861895055   -6.20289730225856    3.92736739371922
C           6.63064276805098   -7.15239959059350    3.74016685696980
S           6.79236002342198   -8.12636687565074    2.27990445192703
C           8.16422208197054   -9.00701269047016    2.90201418877808
C           8.76017686423874   -9.97744564378896    2.13312136291961
C           8.26661699286483  -10.26237946588765    0.84450776308966
N           7.85403242393566  -10.48453337297455   -0.20340801722502
C           9.86562430482814  -10.75359255194503    2.51691882261943
N          10.76674511705335  -11.41908769833341    2.77282676871891
C           8.49907024315045   -8.55914582395633    4.22746988772858
C           9.52747501587862   -9.03533661490764    5.03926994269325
C           9.70307770977976   -8.48867402582297    6.29379639939429
C           8.86701712258822   -7.47305321639829    6.74814402281291
C           7.84530909277830   -6.99145119532486    5.95615092103082
C           7.64934717070876   -7.53000463734083    4.68605421863950
S           3.52102382470949   -4.57742933497604    3.61838797778545
C           2.62177100162210   -4.69224977234083    2.16058231393645
C           1.44441483308553   -4.03225702667018    1.74353862832018
S           0.48308948031697   -2.84594141908191    2.53960799336909
C          -0.63165164639814   -2.84288354033691    1.19654268014464
C          -1.79388587673286   -2.03084325794760    1.20189118744584
S          -2.99076409878996   -2.15593866272061   -0.05719246133479
C          -4.01162551843466   -0.94371965052652    0.66454624014358
C          -5.25545763354957   -0.57515943808895    0.08784836191654
C          -6.13636854286729    0.40766159339967    0.50595960481915
C          -7.28293722341196    0.48684507602469   -0.27726436572403
C          -7.27774843552048   -0.45124006039291   -1.30617546720474
S          -5.85618416889645   -1.42439541127462   -1.31555385434910
C          -8.41251941680117   -0.47009571148300   -2.14670579427557
S          -8.80445742432291   -1.46810408624242   -3.48754810912527
C         -10.34503013381375   -0.64638854521805   -3.67795593352680
C         -11.19481148527492   -1.08427897220749   -4.71661570235750
C         -12.43020911706673   -0.62754785126130   -5.05554643317388
S         -13.26960414241166    0.68132674327946   -4.22579308789601
C         -14.66849183770706    0.57209006315429   -5.26334458539524
C         -15.73357715745129    1.41768528432301   -5.06766938402477
C         -15.70103494504832    2.36995075155372   -4.02956915162301
N         -15.66192736312687    3.14221286961185   -3.18128138987825
C         -16.91116919649599    1.43190186069184   -5.83251554561436
N         -17.89643989606741    1.49320296574121   -6.42061341434583
C         -14.49509046693954   -0.46457034063790   -6.24568720717150
C         -15.39968015319034   -0.84068860151269   -7.23742903626127
C         -15.06740205309806   -1.86674452835031   -8.09785997593097
C         -13.84490544946614   -2.52167609498416   -7.98190035184009
C         -12.93916791971005   -2.15981809743104   -7.00632925146441
C         -13.25444156867774   -1.12631098473823   -6.12656390695211
C         -10.49282091119730    0.34980062209236   -2.72192701053676
C          -9.41372203646791    0.45688256153250   -1.85639091306717
Si         -8.88275932550735    1.50232723482002   -0.36607554503780
C         -10.00220156016720    1.26706425850595    1.14803538721634
C          -8.57083807865571    3.31660200170501   -0.83103724212825
C          -3.42014044880587   -0.47470984423029    1.82165147639114
F          -3.96852178335512    0.46839433720320    2.60118494445966
C          -2.19277897271500   -1.08142300873449    2.12146647613093
F          -1.46946964011032   -0.76622955471218    3.20470885760271
C          -0.23777199859793   -3.72106964379312    0.20111172169432
C           0.93870310251986   -4.39796332096761    0.49752969678737
H           1.97375020493996   -8.13143286399363   -0.80673635757576
H           0.50915290592227   -7.32704605773527   -1.33534504572978
H           0.73344554200048   -7.71267186245152    0.36267954792723
H           3.75771212972732   -5.72780239447968   -2.13520534208607
H           3.43872475734298   -4.07333903974444   -1.64279145830091
H           2.28725124883619   -4.92830474520137   -2.65522603576148
H           4.83537678401342   -6.99945556585619    1.24782073407117
H           5.69542610788008   -5.67831038726278    4.87376794750145
H          10.17710135075766   -9.82190309901626    4.69212686421639
H          10.49635079222146   -8.85375996249245    6.92740729320683
H           9.01897682900621   -7.05735321629919    7.73275930678108
H           7.20385260524622   -6.20444431955063    6.32056244508081
H          -5.94294638304109    1.03912333614044    1.35306671222312
H         -10.80071272911171   -1.89633749092007   -5.31376370525917
H         -16.34758850010081   -0.33681134444358   -7.33119779062300
H         -15.76347552728824   -2.16296735315650   -8.86706644609187
H         -13.60196433535165   -3.32287787158609   -8.66343995052782
H         -11.99491449948472   -2.67547325566302   -6.92744434599619
H         -11.36158175326444    0.97791919718732   -2.65656083387738
H         -10.15798759735243    0.21705148468112    1.37588987662823
H         -10.97350380015057    1.72026153243343    0.97873107913737
H          -9.56612981459207    1.73773726002414    2.02313523037060
H          -7.92737106407253    3.40357416552167   -1.70126870099836
H          -8.09813080163238    3.84782608677909   -0.01149141378504
H          -9.50582513606861    3.81962338414964   -1.05533920660932
H          -0.80707519875998   -3.84828520229265   -0.70270843525262
