91
 SCF done       -193.990834288613          0.000858791863
C           7.51265446882573   -4.00923479330158   -5.76491790118359
C           7.50616714843478   -5.36150738291056   -5.99526086546742
C           7.60165941694084   -6.27032142114303   -4.92051605164812
N           7.67463171506254   -7.00403799249157   -4.04175486964555
C           7.40924880543292   -5.97026057553319   -7.25852902353147
N           7.33510691884891   -6.52499883887125   -8.26139471515660
C           7.42598393737158   -2.92319100315594   -6.70655604803101
C           7.46047697098701   -1.65889865672111   -6.08203676554159
C           7.38685180304095   -0.50388622430310   -6.85630374698948
C           7.28195581287205   -0.61325921088932   -8.22842501042295
C           7.24916753553005   -1.86095762031235   -8.84269542072009
C           7.32000674897496   -3.01799904842351   -8.09272304228340
C           7.57916691012858   -1.72704396530067   -4.64699139438494
S           7.63990050218217   -3.40645951904186   -4.12795034173119
C           7.64414637735558   -0.67106939427291   -3.79142806101969
C           7.78142037908654   -0.69138797575692   -2.38885617007586
C           7.85932145039261    0.44152651925040   -1.58229673631328
C           8.01323293675432    0.12305801098649   -0.24095353655602
C           8.05160667965028   -1.26945529637871   -0.00903094770147
S           7.89556682288863   -2.17417646261169   -1.44727826365650
C           8.22745520597206   -1.49875373063518    1.37281519167135
C           8.30256539841767   -0.24620716047669    2.02269178500149
C           8.16584970658885    0.80872161934901    1.03347263552140
C           8.18103442111966    2.15550022028595    1.24985115590738
C           8.34047197278258    2.71136233178983    2.53707444590596
N           8.47149859998566    3.17482451475364    3.57750109317289
C           8.03916821533673    3.08184195533109    0.19562821338433
N           7.91946747061458    3.83306871359313   -0.66269891584124
C           8.49479544960002   -0.36257139332967    3.39133792688132
C           8.56749511944753   -1.69120220149363    3.79695994002220
S           8.38520293278521   -2.81109823513640    2.45661170993455
C           8.78409539245536   -2.16522906480193    5.11682990880571
C           8.83697448899406   -3.54634755165198    5.40705500905415
C           9.08901941575026   -4.04774154804537    6.72572431080665
N           9.12922668264464   -5.37913298564384    6.92718098552903
C           8.93942005674064   -6.18621824233974    5.93293497788393
C           8.69001125865484   -5.69037533810146    4.62780107319290
N           8.64587906501037   -4.41720422137465    4.39702410875565
F           8.49395899588833   -6.51635673561979    3.60617112058875
F           8.98539699088613   -7.49258498744266    6.17463407757870
C           9.30698515081230   -3.19837575752685    7.83291522697703
C           9.23518487822805   -1.81133911456320    7.55527176871079
C           8.97768782247261   -1.30548854703280    6.22566820525112
N           8.95956993829819    0.02770675947946    6.20750786545301
S           9.23134528983042    0.58921838377757    7.68391214607570
N           9.39010052171520   -0.81895343780818    8.43212849624055
C           9.59232544176801   -3.71687774200740    9.12219088534199
C           9.85007436418276   -2.98441449519803   10.27654506654898
C          10.11867066111421   -3.80249649294684   11.36349625613616
C          10.06096285542005   -5.17635963235733   11.04022704611841
S           9.67648873993882   -5.44904800858059    9.39666265343616
C          10.36090929097612   -5.91581648646835   12.20475767850922
C          10.61504607053212   -5.02052355891968   13.26566444124230
C          10.45381630153532   -3.66144862458970   12.77096733738832
C          10.57286343499931   -2.50390962537104   13.48158878278375
C          10.86618605825598   -2.50115708140849   14.86251912583201
N          11.08980851145445   -2.50390097137367   15.98679176870150
C          10.39167963822756   -1.23599131221692   12.88884954472786
N          10.24776382997348   -0.20238949596556   12.41405977405066
C          10.95020776638920   -5.65865611094566   14.45424976567524
C          10.94841350131758   -7.04153860404435   14.32409269951188
S          10.51286910411742   -7.54257113090669   12.68862655789555
C          11.22720723192651   -8.06292565005835   15.25836318057903
C          11.72975227596967   -7.94709016694104   16.51726002523908
C          11.98327921306823   -9.04048917674884   17.42396704720013
C          12.56592656928647   -8.64007983825521   18.64410684357046
C          12.78374526799470   -7.21747340782905   18.71524402090040
C          13.35248387692305   -6.47945675886087   19.72099012852266
C          13.83969044553863   -6.99965345888796   20.93298622223866
N          14.25070796521153   -7.36237957252964   21.94237217993361
C          13.51159681363035   -5.08255770691144   19.59551014354879
N          13.65495576792851   -3.94911447430020   19.49618353965900
S          12.21759031679967   -6.42902982759608   17.26149267499569
C          12.86961970639506   -9.58677787313857   19.62015936895254
C          12.59046012766586  -10.91715408913261   19.37805675736923
C          12.01385765568794  -11.31399039963179   18.17620656235760
C          11.70903255754242  -10.38721635484663   17.19957677504176
H           7.41192824235023    0.46894558026213   -6.39115294419354
H           7.22541225112052    0.28023362604137   -8.83124804999338
H           7.16789110384385   -1.92779350073837   -9.91635446381677
H           7.29439751626611   -3.98121254485813   -8.57497587097599
H           7.59334017908801    0.31985512745995   -4.22315468354845
H           7.80774218192233    1.43914869092369   -1.97949360306295
H           8.58627966090736    0.44997278886898    4.08819676582061
H           9.83772773988363   -1.91019157995019   10.28194560476410
H          11.16942695332297   -5.14781812728882   15.37305460453379
H          11.02969000939739   -9.06655850300634   14.90530734013808
H          13.31482748128167   -9.28656948411990   20.55419737995171
H          12.82176788471726  -11.65424291480323   20.13105828948934
H          11.80108439940966  -12.35817817297415   18.00477064931251
H          11.25963925307600  -10.70784625085220   16.27293857727397
