89
 SCF done       -164.057071747770          0.000437359730
C           5.48705159579143    2.12433233276522   -5.86329055801970
C           5.60413299271929    1.43720070582990   -7.04690024331036
C           5.97154411501929    0.07664196871025   -7.04141625722974
N           6.26988676156851   -1.03159443189555   -7.01976972124564
C           5.38574552718561    1.97642859151689   -8.32511356139223
N           5.22221614273159    2.35980495001786   -9.39585782975340
C           5.12691927929012    3.49829732763433   -5.63508258447234
C           5.10985401147534    3.83763465026647   -4.26535062172538
C           4.77886032831928    5.13595284451876   -3.88294121978234
C           4.47460073501259    6.07211798699580   -4.84959524230073
C           4.49432220139271    5.73528258865792   -6.19977070872660
C           4.81753701496950    4.45513418209953   -6.60037494406976
C           5.46244080695349    2.74771650747032   -3.39175325629913
S           5.79813662537774    1.30895967201219   -4.35237164483438
C           5.54399330093545    2.80003593521727   -2.03470362260279
C           5.91623305984048    1.77934542550520   -1.13472177528458
C           6.28757456688150    0.45687502583732   -1.35173561518648
C           6.61606515455802   -0.20008336679553   -0.17865932015655
C           6.49784092646016    0.60743671851879    0.95665913891320
S           5.97203090509515    2.19087415704065    0.57786019700460
C           6.87831502553324   -0.13899176950449    2.09359628704085
C           7.24375563687924   -1.42525815337386    1.68965241281346
C           7.09582581877628   -1.58244284350851    0.19492065251656
C           8.43744441018226   -1.90322703773077   -0.46930566187967
C           6.05165327343412   -2.64691730391838   -0.15380669985158
C           7.65997904077109   -2.22013368830714    2.74592430355363
C           7.61330787013833   -1.54601482187507    3.95746070467417
S           7.03665609241476    0.09856021568909    3.78523872215115
C           7.99985504334820   -2.05898286183740    5.21985385754966
C           7.96900431621605   -1.44754291001786    6.45822527023169
F           7.51316446860624   -0.20165870789393    6.64312907443342
C           8.46002905526197   -2.24365255969409    7.50099124511587
F           8.51236533916317   -1.81863503248354    8.77094847694530
C           8.88810588779225   -3.49571303508885    7.10020924617976
S           8.65367142214390   -3.66516457054437    5.38317679261684
C           9.46191716250221   -4.53169146502833    7.88078558126658
C           9.72821660769729   -4.52389562845154    9.24181260757091
C          10.32621226137706   -5.70321028010931    9.66275023478137
C          10.51677562719915   -6.61807586206008    8.62595421665752
S           9.95423985481558   -6.02987394207960    7.11513377994986
C          11.14663858227803   -7.77231429252981    9.14000186624245
C          11.36377478062252   -7.59931795713138   10.51023575739303
C          10.84701529194007   -6.25605484769789   10.96837020878166
C           9.72312483912378   -6.41295650061551   11.99654273354403
C          11.97639498344368   -5.38827471045631   11.53044338587747
C          12.00052690195734   -8.67743892189985   11.10086867991348
C          12.28130027611411   -9.69249464283952   10.19290461635103
S          11.72399623896947   -9.27967821582926    8.57293653828588
C          12.92599961274718  -10.93673277740323   10.35709302771859
C          13.48880078897783  -11.46058341205061   11.47933203455710
C          14.15282693971574  -12.73498171284542   11.58239125200239
C          14.66391813705613  -13.00845505491081   12.86902729214855
C          14.40469138804679  -11.94892268601420   13.80718976147215
C          14.74579961657008  -11.85542189634640   15.13433254418245
C          15.44817746728660  -12.82849347170982   15.86387951232075
N          16.01953028475206  -13.58584176639486   16.51197424044347
C          14.39027900018857  -10.71177584865150   15.87734598337183
N          14.09237918263077   -9.77417038003118   16.46858774636839
S          13.52735749602951  -10.64860870743824   13.04287140942930
C          15.33800682472577  -14.20271853292615   13.11850033694167
C          15.49740918091682  -15.11248876340356   12.09342119000297
C          14.99284503171242  -14.84619603582404   10.82412206978997
C          14.32411686809972  -13.66819060901638   10.56206973406230
H           4.76054201280312    5.41019183175286   -2.83984628048512
H           4.21906794037325    7.07859823767570   -4.55464201217164
H           4.25524862857143    6.48091822301630   -6.94193736824942
H           4.83168225936709    4.19886798859807   -7.64698096517361
H           5.30772516731144    3.74970699025059   -1.57265102525554
H           6.31762327494350    0.00300239463855   -2.32409580560063
H           8.31940488014762   -1.93546507090925   -1.54932464973163
H           8.80199306495788   -2.86800828064334   -0.12613363993962
H           9.17442183626398   -1.14284407099178   -0.22090209303293
H           5.10056804556213   -2.41432803594993    0.31987333550152
H           6.38447359310466   -3.62233087512722    0.19166708366177
H           5.90556562672269   -2.68566179810433   -1.23019177045502
H           7.99125142669011   -3.24051669331458    2.67336020692789
H           9.49578572215994   -3.68989919472684    9.87701789113109
H           9.31435804385838   -5.43884935185376   12.25227496056282
H          10.10751078341078   -6.88123425818819   12.89899022449362
H           8.92457987420614   -7.03216456184648   11.59399684974582
H          12.77288603268721   -5.28154538725610   10.79741867631717
H          12.38604987368388   -5.84577160372661   12.42726645182666
H          11.59769731730337   -4.40070659806990   11.78065739396058
H          12.25135330183544   -8.73088916934724   12.14331912826952
H          12.98460210518542  -11.53986675669935    9.46041661313806
H          15.73024058056455  -14.41337293041311   14.09982467336662
H          16.01839499700603  -16.03861768627937   12.27995217955741
H          15.12634301305751  -15.56990464237926   10.03436587078548
H          13.93780061863646  -13.47412846998390    9.57378043571554
