89
 SCF done       -155.617197400827          0.000943390928
C           7.65328039950725    2.97077491212871   -5.80191314801159
C           8.28943483242178    2.57501030219822   -6.95388702072083
C           9.05595872857611    1.39285631516310   -6.96837810040147
N           9.67655595959240    0.42697622769255   -6.96586468264921
C           8.25103768881143    3.25926467469038   -8.17924547490536
N           8.25402081278633    3.77180311474869   -9.20779708713705
C           6.83175957399821    4.12653708498681   -5.56195479181519
C           6.34442038182122    4.18426585329525   -4.23861627599465
C           5.53682758483412    5.25129588366107   -3.84969796848801
C           5.22363407208151    6.23500550618943   -4.76445743314023
C           5.70320406322375    6.17405119474697   -6.06965120350396
C           6.50464125075899    5.12734911325049   -6.47574303332527
C           6.76598781212694    3.08124398930940   -3.41493238564108
S           7.79580266736553    2.00441172897505   -4.35643746626151
C           6.42168281246856    2.87028837221680   -2.11517441344075
C           6.80710274259929    1.81552933580651   -1.26288116808315
C           7.67455473130710    0.74675107913257   -1.46132493166216
C           7.77387079859506   -0.06943926918038   -0.34847355332360
C           6.98025330084287    0.35752657929881    0.72089426278607
S           6.10933062227851    1.78434574139023    0.35625578887647
C           7.14589444057377   -0.53678366211920    1.80037960368084
C           8.04919465233403   -1.53383569269599    1.43167487128798
C           8.53084521816571   -1.32453451771914    0.01567233640184
C          10.04382608335860   -1.09657629803367   -0.03416588504652
C           8.13055549049839   -2.49525134043694   -0.88651043555008
C           8.27160541396697   -2.45959635305696    2.44134498382731
C           7.53746237211451   -2.18151172689903    3.58257481388428
S           6.55608953116593   -0.73973643829653    3.40155474116367
C           7.51040582216653   -2.91953784944563    4.79118887630139
C           6.73460026282392   -2.70649459489823    5.91181460015975
C           6.95000022435932   -3.63980479590827    6.92328488284834
C           7.90117322688177   -4.58712135719696    6.60527904823537
S           8.53936838829147   -4.31018919449442    5.00709823283266
C           8.35934658261736   -5.67465037485617    7.38879612364450
C           9.36581820016059   -6.57414301509616    7.07625523586246
C           9.54869044708749   -7.52570356588741    8.06954197575904
C           8.67678547059904   -7.36023964092575    9.14581600552989
S           7.62696694408909   -6.01594593181978    8.94490230751293
C           8.91506156308226   -8.37771524507415   10.09465064693785
C           9.94855147520530   -9.19852090162513    9.63050788494459
C          10.45516719702792   -8.71359236060851    8.29166663603771
C          11.92148167519970   -8.27948349165461    8.37666299462359
C          10.26600594966056   -9.77324473092073    7.20345904571065
C          10.23500412603653  -10.23599065015298   10.49731213840249
C           9.42491829890373  -10.22750855571201   11.63228230463841
S           8.29121390839941   -8.88589804221140   11.60716764001138
C           9.48531576107315  -11.17418277692935   12.67292728655308
C           8.72335274847279  -11.24760802157922   13.79809641990069
C           8.81728847315232  -12.24553300494770   14.83126972346720
C           7.88958751953745  -12.06467781310456   15.87879829822515
C           7.04734953975195  -10.91466492763273   15.68038647475967
C           6.03861360987042  -10.43097938833115   16.47757069500545
C           5.62294900206081  -10.99615652158619   17.69402541198324
N           5.23644183257040  -11.41015726133248   18.69414818278659
C           5.32146292478624   -9.27674602641133   16.10369654626410
N           4.73716010388847   -8.33770644986058   15.79713738440745
S           7.44849084403723  -10.09749251478072   14.18969130094062
C           7.86168790665971  -12.95377005949625   16.95192991659233
C           8.74918788389610  -14.01013332156476   16.97507277819343
C           9.66339388819168  -14.19168552324515   15.94177895354986
C           9.70364630112782  -13.31958493115907   14.87364064652087
H           5.15995625010787    5.31094685055479   -2.84076440243832
H           4.59945173167905    7.06284274086543   -4.46388233809448
H           5.44763766151971    6.95259292894868   -6.77150136521799
H           6.87463615470136    5.08491046398108   -7.48690860600513
H           5.75786526147803    3.59823959685777   -1.66730424012353
H           8.21107038117597    0.58420023814845   -2.37689459037590
H          10.35263720874362   -0.87050522166981   -1.05156896849007
H          10.56626872548577   -1.98845238112481    0.30225594121517
H          10.32303753429247   -0.26495121534043    0.60881628434054
H           7.05496296778247   -2.65214413780691   -0.84808378378955
H           8.62769118653939   -3.40492118649578   -0.55940388860638
H           8.41644354929390   -2.28767091626793   -1.91449931668411
H           8.92759468898090   -3.30920251315120    2.37739212731040
H           6.03169701432541   -1.89504429803531    5.97916010140250
H           6.43474218785322   -3.63644011897385    7.86737509564644
H           9.92249397156921   -6.51220919546863    6.15824181149470
H          12.24007545616920   -7.85395225413658    7.42837414625198
H          12.55171687172383   -9.13462147125957    8.60796865106018
H          12.04918646099864   -7.53094520182243    9.15537118626047
H           9.22284330059390  -10.07602089831630    7.14821714636018
H          10.87221391775282  -10.64825135931798    7.42452371724431
H          10.56493805717705   -9.37357185857564    6.23768950650489
H          10.98997602847324  -10.98532096246657   10.33948194512256
H          10.23920025632159  -11.93973998755038   12.54042997670965
H           7.15579607224910  -12.81895395864827   17.75475382887786
H           8.73247042257866  -14.70145619238389   17.80322923707359
H          10.34919627833904  -15.02475650043217   15.97626348184808
H          10.41674826236688  -13.47038986015319   14.07822577296417
