83
 SCF done       -164.194566496130          0.000923909806
C          -0.19028365991685   -2.05309160845849   -0.49323474958604
C          -0.52380675330723   -0.82024776333319    0.00821592080872
C           0.48140725760563    0.04105962674421    0.49482766463377
N           1.31193072852990    0.72464195616494    0.89423674732276
C          -1.82744981370241   -0.30338745491672    0.09826842135576
N          -2.86824039515108    0.17187207349345    0.19885985599438
C          -1.04714071616453   -3.08825618756799   -1.01432508788123
C          -0.33179944005207   -4.22945379636753   -1.43019878751776
C          -1.01492921430509   -5.32388029019554   -1.95198021347542
C          -2.39056370890606   -5.27270752423470   -2.06119818439549
C          -3.09523880586920   -4.14426566834061   -1.65519662532293
C          -2.43497957531898   -3.05016322102328   -1.13192497531892
C           1.09585359221848   -4.11545675097391   -1.25077544941191
S           1.48379585842963   -2.54554431079921   -0.54520485296248
C           2.03386819488272   -5.00662959012898   -1.64729572726365
C           3.45064531125332   -4.91740092320012   -1.54396368545056
C           4.36219226610526   -4.41011205556525   -0.66079202320329
C           5.69861780186419   -4.56772056138745   -1.22742831628497
N           5.59493453688093   -5.18643500353532   -2.43569011528553
C           4.25669598864607   -5.48980793404296   -2.67075105550907
O           3.85558327599611   -6.10769619686690   -3.62630221212595
C           6.65311024270694   -5.60940309932633   -3.31296817142652
C           6.62648399578757   -4.12465929658081   -0.33524192231526
C           5.85362692085561   -3.68639473162376    0.86887290352614
O           6.25566882509189   -3.21625192987800    1.89972648784282
N           4.49697089221851   -3.89784960234669    0.59285024866557
C           3.50430254503277   -3.70672155594197    1.61923696590823
C           8.04091543638487   -3.97214250435815   -0.43461507995719
C           8.98179509385888   -4.05244627422690    0.57083919287453
F           8.72515814498410   -4.45309939785908    1.81621322776136
C          10.28321528262193   -3.75868423829821    0.13926095761023
F          11.33052771971211   -3.83474040629550    0.96943390402851
C          10.38341381737262   -3.43333655681432   -1.20004299647730
S           8.80820802500592   -3.55536774892007   -1.93821783277298
C          11.47065013316389   -3.05406975853248   -2.03535738546850
C          12.76438366380671   -2.62755470175459   -1.90692930753734
C          13.30632582161765   -2.36888731520631   -3.23974525361821
N          12.35472245644104   -2.69736551696306   -4.16681232104611
C          11.21319239798629   -3.09482456428708   -3.50419069142650
O          10.18622228915715   -3.44258409698552   -4.04770170281698
C          12.46806521865643   -2.81438512490301   -5.59886927652106
C          14.59679808724001   -1.94356578157812   -3.12854239416015
C          14.90166186723816   -1.98616928511428   -1.66166181437632
O          15.94970973140161   -1.72634471115281   -1.12179569767902
N          13.74130517845271   -2.35308213698755   -0.99249179354063
C          13.69768325768174   -2.39104913466870    0.44546915402327
C          15.62825362067439   -1.47149047164454   -3.98894757157393
C          15.52955163519415   -0.70085374564525   -5.09671674600286
C          16.62383392953307   -0.19766630286536   -5.89385915578971
C          16.21733464420228    0.66389717700499   -6.93267022518954
C          14.78859276552153    0.84975551675342   -6.97527762689042
C          14.03364505125475    1.58887943467500   -7.84965453083078
C          14.53853033912104    2.35974783089622   -8.91110501287311
N          14.89095656820128    3.00498902779312   -9.79319999207629
C          12.62816764405830    1.60416586681108   -7.72978444497145
N          11.48575627723447    1.59107191185544   -7.62316749340899
S          14.00550035987873   -0.04877359478493   -5.69850046662073
C          17.16394681080102    1.23257271945925   -7.78210660472008
C          18.49975236455437    0.93707438682458   -7.59295626112969
C          18.90135611542235    0.08347114634592   -6.57102262476609
C          17.97389855919327   -0.48667323642794   -5.72107559026107
H          -0.47584038183076   -6.20232060711231   -2.26962391307163
H          -2.92469423882814   -6.11825481377221   -2.46699583087656
H          -4.16982204582137   -4.12104402912153   -1.74854895764153
H          -2.98728787112528   -2.17946880493501   -0.81898577661061
H           1.70016895052285   -5.85128828528144   -2.23868264669222
H           7.35303120430377   -6.25787143099229   -2.78433987176409
H           7.19645619804826   -4.75219018007092   -3.71391204659757
H           6.18817469521308   -6.16219649826369   -4.12896426827453
H           3.96808216740431   -3.94031030625724    2.57863357414999
H           2.66014187878196   -4.37009699825945    1.44506805217716
H           3.16572076828374   -2.66976270138146    1.64902753529184
H          12.03616854401164   -1.94527211423398   -6.09744306387519
H          11.90912459675926   -3.69812198542926   -5.91016811011454
H          13.51376536002200   -2.92309806079133   -5.87623244914217
H          14.61377988883580   -1.92119049434656    0.80255599862549
H          13.65762087515999   -3.41684761790303    0.81166713444901
H          12.83453550500265   -1.84141649457871    0.81725930694854
H          16.62308818445132   -1.66145809859215   -3.60310397355451
H          16.85992313609144    1.89473787646814   -8.57593823812353
H          19.23776327927903    1.37497241195079   -8.24674523193370
H          19.94993396210786   -0.13529805329176   -6.43905390066644
H          18.29413888424615   -1.14609772574115   -4.93011492582526
