81
 SCF done       -182.521753329084          0.000499400538
C          -7.67513250446367   -2.72210258624088   -3.63363163189628
C          -8.02398262533892   -3.89620759689189   -4.44939729925640
O          -7.74609349577057   -5.06036400412547   -4.27182209569274
C          -8.82558911668729   -3.36304529116243   -5.58874107624160
C          -8.96749333936271   -1.97394396308735   -5.47363696649501
C          -8.26374033853413   -1.50808371653263   -4.24835945005327
O          -8.18116529450083   -0.37852500638071   -3.83216133858663
C          -9.67817791538056   -1.27185335020725   -6.43143172576774
C         -10.25039347846504   -1.94600722535526   -7.50684243939806
C         -10.11077754429770   -3.31553460807249   -7.62034482838930
C          -9.39734006932044   -4.02732166167163   -6.66008848683047
F          -9.27922239129926   -5.34971982946169   -6.79851323160152
F          -9.82987148460881    0.05110348271727   -6.34976163154627
C          -6.94142631103088   -2.58281850887358   -2.49466927653956
C          -6.25380375715541   -3.53289369578978   -1.70466322549627
C          -6.13323641447523   -4.89627422707281   -1.83015145544934
C          -5.33865047680701   -5.48690452110583   -0.82842533724305
C          -4.83371449313890   -4.52797342639365    0.09888756702490
S          -5.36942870642751   -2.92543562092614   -0.30315399729420
C          -4.02637240971938   -4.88218528263163    1.15558725579608
C          -3.70283642122140   -6.23341359911570    1.30555198370466
C          -4.21000621408038   -7.19286616936297    0.38278884772985
C          -5.01650362428180   -6.83937342620773   -0.67177418236213
S          -3.67197539554057   -8.80147724328291    0.78289731155322
C          -2.77238728046394   -8.19252595967289    2.16242320197408
C          -2.89601821753098   -6.83054096865749    2.29545365379372
C          -2.03885125441242   -9.11065813982735    2.97884917337272
C          -1.24575774810812   -8.74714351600978    4.09268547798729
C          -0.54022645317015   -9.71971309502034    4.89117103423056
N           0.19636164038445   -9.29084895021610    5.93986615784480
C           0.26333715684888   -8.03175181477143    6.21407620632643
C          -0.42792900485111   -7.07591793438394    5.42806171708604
N          -1.14419908742750   -7.43951672529238    4.41821033861323
F          -0.36253124223816   -5.77445454224535    5.70182120627537
F           1.00463269276841   -7.66589694477614    7.25792638528163
C          -0.59190839944209  -11.10706803297743    4.61842219960239
C          -1.37026943053815  -11.46285134733296    3.49828459948981
C          -2.07261835106220  -10.49200605614784    2.70010833380766
N          -2.73886967554399  -11.07108227240219    1.69903954384951
S          -2.50952451123367  -12.65483070276087    1.75215407491484
N          -1.55910176289308  -12.70206489087845    3.04010534338919
C           0.06539392177022  -12.11768414434107    5.38934398253173
C           0.85628996118449  -11.97299106036774    6.50354861782479
C           1.33094029536483  -13.19316212729426    7.02638657111842
C           0.87610135479253  -14.30987452264257    6.26791288531637
S          -0.12005548826548  -13.80266688139642    4.93080232863446
C           1.20673903599625  -15.60221607588475    6.59705539317411
C           2.01637739963578  -15.80846193318637    7.71940613230302
C           2.47317060043082  -14.68886786661631    8.47597219859528
C           2.14370422964300  -13.39431848251212    8.14519482200023
S           3.45527722119788  -15.19622658487942    9.81539352467199
C           3.24994972382575  -16.89197175624756    9.37106037558981
C           2.47036114586211  -17.03277673662154    8.24782541191959
C           3.88154833197478  -17.85295515911127   10.19395755624454
C           3.90064482348156  -19.21350819251609   10.13854406008847
C           4.65899190200124  -19.95202731620303   11.17659442475965
O           5.28775762918479  -19.47100275693238   12.08722974392772
C           4.47930351027804  -21.39468724317563   10.86084377336022
C           3.67882259432979  -21.52235665490660    9.71809067640895
C           3.28315995642865  -20.17582135731551    9.21206025925707
O           2.59671057063309  -19.96567143175277    8.23809123735333
C           3.37123828747404  -22.78085905372831    9.23068304294649
C           3.85595576869802  -23.91529275379173    9.87566928851598
C           4.64473352775663  -23.78901907998009   11.00238594058214
C           4.95838156270000  -22.52621817917440   11.49761415056283
F           5.72206035944989  -22.43617818214207   12.58786121917082
F           2.61124898242227  -22.93674715991986    8.14434736763520
H         -10.80064994772581   -1.38382158818101   -8.24480248938002
H         -10.54918290192413   -3.84883592794604   -8.44897899522198
H          -6.86838809859377   -1.55653852507127   -2.14143928327129
H          -6.60283033825348   -5.45152156847606   -2.62198247350390
H          -3.64936474412994   -4.14789816454022    1.84917173369331
H          -5.39438705513396   -7.57226159300742   -1.36601746780646
H          -2.41909496128634   -6.27838111942644    3.08211841043523
H           1.08515358696450  -11.01668466865122    6.93279010130310
H           0.85641616290604  -16.44102703567126    6.01766391397527
H           2.49433577255487  -12.55643481807954    8.72611812479262
H           2.23255849351590  -17.99051363781983    7.82106351950109
H           4.44997494750170  -17.43938574090025   11.02421508896374
H           3.60570879506028  -24.88802824355744    9.48290234545714
H           5.02549783112590  -24.66074170549447   11.51082054907081
