81
 SCF done       -162.090961643849          0.000483630860
C          -3.77115316065159    0.81569904835002    0.70377186057731
C          -2.94644639734156    0.48897169252380   -0.34131814583917
C          -2.43388130241844   -0.80270478054838   -0.49361009494483
C          -2.73556895714695   -1.81369174877502    0.40484453016949
C          -3.59145840862724   -1.49005781936178    1.49712647526814
N          -3.90368969193984   -2.44506885116810    2.38510157122532
C          -4.68975933165825   -2.13543711917021    3.38183106316204
C          -5.20143440101708   -0.83138096407112    3.52728625945117
N          -4.91947234156954    0.12355568941537    2.68303366881115
C          -4.10943353241452   -0.17334503573452    1.64589645743512
C          -2.23146560972139   -3.15211459760658    0.28072735877369
C          -1.39679878394988   -3.64581766444822   -0.70495562624938
C          -1.10710967017162   -4.99688413369331   -0.52314279573860
C          -1.73184086724982   -5.53467918730066    0.61752378290027
S          -2.66936062599311   -4.37566666044045    1.45908958780653
C          -1.38785641297496   -6.90559333882950    0.71409466765027
C          -0.54331018779670   -7.23093612360067   -0.36734706238736
C          -0.34092559923397   -6.04082720878816   -1.17962669119388
C           0.40280944023009   -5.93203496914958   -2.31904113703795
C           1.10472209414261   -7.02261894612755   -2.87311981998628
N           1.68252322280709   -7.89894267473320   -3.33541080540807
C           0.51340153249868   -4.71528238398140   -3.02258174102743
N           0.60502196275713   -3.72562068343736   -3.59573796710449
C          -0.15595771735917   -8.56358795794918   -0.36762732191992
C          -0.70028257965149   -9.26298378560306    0.70318993570983
S          -1.70291512011831   -8.24807756889097    1.72784632547427
C          -0.53815228353037  -10.63954271807816    0.99876801254075
C          -1.18720186600549  -11.22165392544510    2.11335205837012
C          -1.08647874150791  -12.61712266969320    2.41493878348699
N          -1.73639196774971  -13.11359549473097    3.48098130898786
C          -2.44735259209697  -12.31235013538650    4.22627191731141
C          -2.54445334292989  -10.93927426451534    3.93077098970093
N          -1.92815955955075  -10.42537288460216    2.90163979383505
C          -0.32750123698451  -13.51041647481785    1.62323054177395
C           0.34890355488535  -12.93111836300843    0.52621832140176
C           0.24411703927950  -11.52098384208133    0.21859808622777
N           0.95968651758658  -11.20348589276048   -0.86193387629992
S           1.68288060946460  -12.51638461141820   -1.42920843575283
N           1.13459532438253  -13.56393414192479   -0.34703001432079
C          -0.28978971080062  -14.89421588543548    1.92833756074585
C           0.39802121844947  -15.88820705634133    1.24297383982452
C           0.18423573113165  -17.14376948228038    1.79549937729691
C          -0.67377928368432  -17.10881854621541    2.91325980384689
S          -1.20788086380990  -15.52458907410924    3.28569659822841
C          -0.83964596654859  -18.43479724468414    3.38081538471377
C          -0.09331108960293  -19.30567635485250    2.56692639474546
C           0.58029856878525  -18.52249194338818    1.54637607366508
C           1.40593571951179  -18.98109128891788    0.56167994013386
C           1.71921092248396  -20.34877620091926    0.41438509231396
N           1.98349636339802  -21.45673930566224    0.28035278110639
C           2.00702684311125  -18.12027079241652   -0.38074047092345
N           2.50328239587500  -17.43355881087629   -1.15376085570795
C          -0.21289912886740  -20.64360986776840    2.94539737345384
C          -1.03969467731315  -20.81110144670583    4.03630349118179
S          -1.67913597807962  -19.26651820804354    4.60857261857658
C          -1.41775812940674  -22.02624924991004    4.70885042538085
C          -2.20946313259817  -21.98402845292384    5.84495690849753
C          -2.60404024037086  -23.13668887926219    6.52699408766630
C          -2.21722689567524  -24.37526009299432    6.09135143920072
C          -1.41348184792141  -24.48023593486005    4.94042587449282
N          -1.03917630756962  -25.70647494264967    4.51716453887386
C          -0.29719957109117  -25.78165127281144    3.44687440367690
C           0.10464257040394  -24.62961159764826    2.74400189104958
N          -0.24276715017099  -23.43215332241011    3.13225367248452
C          -1.00425351557849  -23.31132535780290    4.23509473321331
H          -4.17255813909751    1.80791824402199    0.83125148117567
H          -2.68011544626692    1.23974492484078   -1.07030094635526
H          -1.78963244116927   -1.00731278227725   -1.33394245954451
H          -4.92489094220179   -2.92413004761525    4.08268749717207
H          -5.85201671021727   -0.57407963260002    4.35220956351218
H          -1.01840551585817   -3.05223302962791   -1.51659061266531
H           0.48209901659623   -9.03791573347912   -1.09039540514901
H          -2.95204160554605  -12.75255096908169    5.07433386780647
H          -3.12735641002652  -10.26289179074829    4.53934312389626
H           1.00896120741164  -15.66854106601879    0.38686853406028
H           0.26392041244363  -21.47665166591908    2.46341347719774
H          -2.53357452458850  -21.02354391275016    6.22019872841510
H          -3.22087636373172  -23.03745493535270    7.40759730936341
H          -2.50573330489010  -25.28201946067396    6.59803295589841
H          -0.00654055607173  -26.77198348272554    3.12311603268096
H           0.71655547062418  -24.68709085602259    1.85409205162173
