117
 SCF done       -232.749994308786          0.000557817107
C          -1.00753932238335    1.30732577855768   -1.07990855102317
C          -1.90800704650355    0.65817714102070   -0.27705636214355
C          -2.01133741328991   -0.73692525148615   -0.27458672059048
C          -1.21014073811523   -1.52578880413427   -1.08092203732184
C          -0.27243882333345   -0.86635370765838   -1.92525179004481
N           0.51392339842174   -1.60044215051653   -2.72627230956333
C           1.37028973301458   -0.98157750045956   -3.49270507392334
C           1.47236264275777    0.42394007839406   -3.48662248921120
N           0.72204373000368    1.17133697082799   -2.72369709857584
C          -0.17037693202937    0.55253166364321   -1.92257796446352
C          -1.28846133079216   -2.96466264918395   -1.10374301714549
C          -2.11627750857843   -3.76094581289464   -0.36137116596401
C          -1.96321027360971   -5.14290863114885   -0.61325217376695
C          -2.66825777061576   -6.21573425344208   -0.02553436692596
C          -3.77019286318994   -5.98136778849716    0.88557061273537
C          -4.76270070909710   -5.04891855586778    0.77423398554777
C          -5.68736750676329   -5.11171015522187    1.83803321382346
C          -5.41798138405034   -6.07695290459525    2.76432959603611
S          -3.98699237960099   -6.94288852995770    2.32069262106424
C          -6.16889304709958   -6.41353374126399    4.00050333934580
Cl         -7.04440551045843   -4.05353901339313    1.94255302428997
C          -2.26646160261265   -7.49500736946897   -0.38401448206520
C          -1.24798458330333   -7.74083715358065   -1.34058673384864
C          -0.58655946117188   -6.66460885399090   -1.97525786103587
C          -0.94509573202482   -5.38527888124691   -1.56741917776785
S          -0.25386375060001   -3.89274077090591   -2.15885894379081
C           0.40738026812480   -6.90740492479284   -2.99810096229555
C           0.38742202224889   -7.85887248663353   -3.97933259499616
C           1.54018091707797   -7.82736760912417   -4.79134847824340
C           2.44726048752933   -6.86689130656867   -4.44873800136125
S           1.86681123056744   -5.96031115875425   -3.09224429213396
C           3.76113619175182   -6.56388757426159   -5.07107560091853
Cl          1.76894676882074   -8.92382549370801   -6.10057620487199
C          -1.02234356102266   -9.12023148788956   -1.51350786687657
C          -1.84743496092584   -9.91811686261500   -0.75872334084826
S          -2.93412197231534   -8.98387683836430    0.23743071588448
C          -1.87013074030493  -11.34378812217406   -0.75114685741565
C          -2.70614196518700  -12.06681486740460    0.12605717964212
C          -2.75648714765696  -13.50452168499300    0.16423628579976
N          -3.57451707227297  -14.09900293428698    1.05955082307737
C          -4.29426451822818  -13.37572532096168    1.85213511376812
C          -4.25829294998798  -11.96050678551058    1.80277094603023
N          -3.48556407189596  -11.35315459744964    0.96368283333367
F          -5.01239091837851  -11.21887018477356    2.61239710850423
F          -5.07736968308447  -14.01637854359335    2.72435166696177
C          -1.97387816881893  -14.29402932336009   -0.70898659033659
C          -1.14390611080195  -13.57034524655776   -1.59270286673621
C          -1.08057683460502  -12.12872026527226   -1.61989348504132
N          -0.22272222493107  -11.69670704924618   -2.54747868841630
S           0.43153137809625  -12.95597287287083   -3.29758814218875
N          -0.32996854447437  -14.11747081007826   -2.49585079526484
C          -1.98154526851264  -15.72099972520983   -0.73983393002101
C          -2.71170209536716  -16.58432754053414    0.03765327967430
C          -2.48005176000684  -17.94546729438003   -0.23973673382769
C          -3.10160525152620  -19.06644858062729    0.35511002273455
C          -4.03650897884982  -18.94340501108635    1.45142709790059
C          -5.14701494914866  -19.70276412250132    1.69714271942456
C          -5.80777511095298  -19.33292327268759    2.88618088236571
C          -5.21823497080799  -18.30803443604111    3.56934127649071
S          -3.80870661232314  -17.77287157106922    2.72492973381486
C          -5.64130207006191  -17.66269083851594    4.83694220123876
Cl         -7.24322466337517  -20.12065972639310    3.42023829960107
C          -2.75959539645439  -20.31192758367545   -0.16240373972135
C          -1.83121060777815  -20.48161101582583   -1.21851301595016
C          -1.21043271179426  -19.36152702675044   -1.81531591539974
C          -1.54734735398756  -18.11705086700296   -1.29541395542843
S          -0.96187122049518  -16.57880461115044   -1.87543773147629
C          -0.29455604435763  -19.47096028914426   -2.93200042770273
C           0.80674721378299  -18.70657246465935   -3.19161012789582
C           1.42268336836268  -19.03077135708304   -4.41957613413037
C           0.80617359134198  -20.02576425879013   -5.11931247504224
S          -0.57033975366752  -20.59651611411787   -4.23710329969178
C           1.17466129296151  -20.61120530321126   -6.43325097499558
Cl          2.83520010733142  -18.21918239801806   -4.97805417068439
C          -1.61798271137849  -21.85023764357121   -1.50024930492245
C          -2.35076282487409  -22.70192232544294   -0.72019462568887
S          -3.35253830884881  -21.84793471570059    0.42210947950738
C          -2.36790078333693  -24.14216822199992   -0.77224306185529
C          -1.59216759875440  -24.87876400097755   -1.64943621774181
C          -1.64168595204531  -26.27664786313729   -1.67573524908209
C          -2.46324295281624  -26.98014092866313   -0.83473331219340
C          -3.27397176964296  -26.27935163787236    0.07766206947159
N          -4.09204296330183  -26.95094590003031    0.91500964367162
C          -4.82194677503026  -26.25178122893491    1.74075491606752
C          -4.77454512342696  -24.84357916458758    1.77562342551183
N          -3.99061166609631  -24.17487450485406    0.97444874631489
C          -3.22518340128802  -24.85837383675218    0.11059926675169
H          -0.91667728120882    2.38147357652864   -1.09078023567645
H          -2.55732994723297    1.22663936797216    0.37220174769233
H          -2.73699699192296   -1.19902453733915    0.37598319161007
H           1.99165800979833   -1.59746839239251   -4.12748033544497
H           2.18209505360969    0.93728484271502   -4.12140178792490
H          -2.80391920394559   -3.38115087790265    0.37094113381822
H          -4.86570960663437   -4.37503050551823   -0.05628051505773
H          -5.68714080882582   -5.97471280988496    4.87524554365445
H          -6.20454325543840   -7.49193366100898    4.13933464402177
H          -7.18270350484211   -6.02492191281836    3.93459197164766
H          -0.43220452541924   -8.53123220589478   -4.15022992164565
H           4.57389945994938   -6.79569763202963   -4.38271497476725
H           3.82945921871933   -5.50747117567127   -5.32571386444547
H           3.88638864060120   -7.15724274914746   -5.97348947884029
H          -0.26359944803070   -9.53470381472548   -2.14899357148287
H          -3.40565887878030  -16.22580843980659    0.77118262665563
H          -5.50919188924041  -20.47255182753432    1.04217934645619
H          -6.60534705338934  -18.05725870843134    5.14758569518083
H          -5.72192869909098  -16.58481958312849    4.70439347728518
H          -4.91391606127659  -17.85006549977419    5.62662551671546
H           1.19086642934676  -17.95769329835579   -2.52523273184616
H           2.00246543602764  -20.05241338602692   -6.86264238516358
H           0.32896486466192  -20.57836540824281   -7.11880317422539
H           1.47460388466419  -21.65310871183109   -6.32066416033221
H          -0.92984523155888  -22.18993205567122   -2.25094425475266
H          -0.93099671217820  -24.37153797078489   -2.33413093089089
H          -1.01522863100975  -26.80405755614456   -2.37983160640739
H          -2.51217321815226  -28.05702709107304   -0.84633578508975
H          -5.47196507682489  -26.80682247320909    2.40373283936618
H          -5.38047453013392  -24.26734292411943    2.46067734408273
