87
 SCF done       -189.954671826942          0.000907830014
C           0.04331793623901    0.07456338351114   -4.62880258668790
C           1.24140405164329   -0.20260683888166   -5.14656382727600
C           2.36109675799595   -0.53127272113215   -4.31170278527550
C           2.23044044598284   -0.76040452918263   -2.98568785312150
C           0.85838956574153   -0.70335873505849   -2.33484809335246
C          -0.16887692324015    0.12728387524227   -3.14048329631208
N          -1.54248963215413   -0.23189940899226   -2.87963588893684
C          -1.80146975056787   -1.38547888663651   -2.45351729191005
C          -0.75058254346345   -2.37940283490888   -2.15686938241515
N           0.46866333613293   -2.07981760120161   -2.11148322576666
F          -1.12257912371997   -3.63929911109533   -1.96605861583462
F          -3.06511925341157   -1.73772519956876   -2.25101118068021
C           3.32071497024804   -1.16904853257298   -2.15696148574105
C           3.28238103431897   -1.56823650680053   -0.83292546706991
C           4.54459229317512   -1.89946473323115   -0.34352404240301
C           5.56264373881505   -1.75342355013285   -1.30497720186069
S           4.95750068430748   -1.21088077684602   -2.80492561604020
C           6.80089114420231   -2.10522308999301   -0.72032460176630
C           6.56453829374522   -2.47706493814104    0.62111793553631
C           5.14180780377019   -2.35632355697402    0.89997182846788
C           4.50564242453354   -2.60063915291812    2.08163344273123
C           5.19335213918821   -3.04417167812558    3.23116408888973
N           5.74230335166145   -3.40375593917653    4.17132752222918
C           3.11651629404115   -2.40769921588219    2.23462145793531
N           1.99042378886748   -2.23703034860535    2.36840114617436
C           7.72439502850913   -2.83093320838178    1.29347441078559
C           8.84794426776005   -2.73469654794764    0.47875252312718
S           8.45356959387568   -2.20080329568064   -1.14898308491656
C          10.19065078041996   -3.00213115264801    0.84296377358609
C          11.23949610692664   -2.86373616446626   -0.09361781109636
C          12.61777147941074   -3.10656961047903    0.24860722796037
N          13.56328545610065   -2.96364151241250   -0.68489601931970
C          13.23619160388326   -2.59994716448657   -1.90258647840517
C          11.86767133590591   -2.34956404351088   -2.24024472941130
N          10.92557453355516   -2.48884011326562   -1.33748095403145
C          11.51249478637828   -1.94951076493319   -3.55150651404257
N          11.25253343642697   -1.62378601509454   -4.61843281528330
C          14.25204418058537   -2.46046248009205   -2.87947362948447
N          15.05011136173673   -2.34216096028411   -3.69243164605982
C          13.01828541634483   -3.48929791652420    1.54889077394868
C          11.96886807889558   -3.64261425103016    2.48749286114515
C          10.58476874769278   -3.40677683520107    2.14142570351890
N           9.78006757829617   -3.61260000034224    3.18372572408809
S          10.65106966611310   -4.05337459091487    4.45587298380775
N          12.09628354857543   -4.00783991831725    3.76295367878525
C          14.38529785408435   -3.68600126391738    1.86357786937071
C          14.91805346618625   -4.02658059705113    3.10275691854507
C          16.30108776189234   -4.11774823012139    3.06496060771615
C          16.83351230976467   -3.85082733173352    1.78414480998030
S          15.62535679211895   -3.48213579169446    0.63305408794222
C          18.24112666537971   -3.96796558264779    1.85374547690018
C          18.60174505899845   -4.29526474335162    3.17673530867655
C          17.39468916232353   -4.40514433407729    3.97890251660924
C          17.30629914412198   -4.71147075422232    5.30560049175685
C          18.45048442407990   -4.97244196931998    6.08771435539100
N          19.38254887255952   -5.18594391007919    6.72105439869280
C          16.07075974899643   -4.78794072177481    5.98230314093770
N          15.07286217816657   -4.85400704778531    6.54292031260249
C          19.97672644458359   -4.41650681434337    3.34496973043330
C          20.67564443350209   -4.18032040286451    2.16892147506513
S          19.59949804904649   -3.79437355417461    0.83606118729940
C          22.09322948355607   -4.26249863050545    1.98043639377828
C          22.93670423123481   -4.66485447642418    2.95984643559646
C          24.35304158430188   -4.77343064838105    2.76374212064880
C          24.94666486321653   -4.34281408651247    1.64895333664097
C          24.16734865981848   -3.65996183281008    0.56022323467114
C          22.65317200651939   -3.98078747037148    0.59080313356971
N          21.84828004054538   -2.95732656695127   -0.02871875043414
C          22.27093084478380   -1.77334734720612   -0.07167525591540
C          23.61555528706992   -1.39727025382068    0.40179492281273
N          24.49041856759508   -2.25274725732665    0.68291612185670
F          23.89175511277529   -0.10430485723343    0.52481609972256
F          21.50206204987530   -0.82926292539070   -0.59731001263937
H          -0.81698448485427    0.31041194025570   -5.23380359822031
H           1.39450508570674   -0.19358561438686   -6.21462388269615
H           3.33047625618826   -0.62574173513830   -4.77928121077096
H           0.95963444962459   -0.25581173439130   -1.33728054103293
H          -0.08435809246622    1.18282850256354   -2.84239647310530
H           2.37510655403714   -1.64155510574048   -0.26390299106805
H           7.79188146213114   -3.14511167008769    2.31877146240325
H          14.29572302584759   -4.18757805813760    3.96375414106126
H          20.44813411447795   -4.65947427544148    4.27872842482359
H          22.55240731597540   -4.91732865514038    3.93466714218600
H          24.93411172301442   -5.21122634840299    3.56093584109058
H          26.01537441532606   -4.36640575195425    1.51775561535539
H          24.57528598201391   -3.96232059666975   -0.41481260345801
H          22.47322728042430   -4.88978432183274   -0.00187275301705
