85
 SCF done       -180.921399758954          0.000642501888
C          -1.79189708602003   -4.07072997845728   -0.14307282813622
C          -1.04676724893554   -4.14927977882185    0.96061564276657
C           0.37898215398222   -3.98715985540612    0.91568381578977
C           1.01966712266128   -3.55207396257904   -0.19174328744527
C           0.22197679791534   -3.17969201132675   -1.43017531696757
C          -1.15807671994858   -3.87320031974854   -1.49360184602831
N          -2.11111991315756   -3.18900346125584   -2.33550964907354
C          -1.97446450475817   -1.95403086556507   -2.52490629329680
C          -0.84755476953713   -1.18229843972903   -1.96323523724233
N           0.15789307173578   -1.73288374081264   -1.44907894294912
F          -0.93304624362814    0.14277549559170   -1.97960430922644
F          -2.86665808734209   -1.30496870011896   -3.26383806040651
C           2.42984384840139   -3.32334369456717   -0.23842630571624
C           3.16288690691724   -2.71467093963573   -1.23879682647484
C           4.52729840029934   -2.67767063171110   -0.94957120725135
C           4.84304837271663   -3.26657114919637    0.28832894681640
S           3.45692019199550   -3.85379702064735    1.09172854601877
C           6.24332192564178   -3.19926156696262    0.48486224611393
C           6.81465522788408   -2.56126824922234   -0.63513614775155
C           5.75577942109372   -2.21499287644511   -1.57112397151765
C           5.89103339664161   -1.60708726230816   -2.78513813312153
C           7.14331562711221   -1.20154193323908   -3.29283626144163
N           8.15348141690498   -0.86618707118763   -3.71958546835730
C           4.78409374688265   -1.36085531041517   -3.62403785499037
N           3.88863844606702   -1.17370690476331   -4.31582785179153
C           8.19646510412636   -2.46275119222241   -0.55645954236008
C           8.69660363670386   -3.02148598709084    0.61346916325277
S           7.41624011122189   -3.67231957695831    1.63307089691434
C          10.04954070791907   -3.13692006448002    1.03145436803667
C          11.16562969960742   -2.66782848897544    0.28498573807334
C          12.51900449248146   -2.85808032185763    0.73060191788749
N          13.53369952626790   -2.39130155199832   -0.02479965683657
C          13.27270658989106   -1.78129127811917   -1.14601738373387
C          11.94703770623527   -1.59626415989322   -1.58329524179610
N          10.93883882805975   -2.02806236888067   -0.88017236512542
C          12.82904555601249   -3.52737863530716    1.94686374130259
C          11.71696556132639   -3.95939740160329    2.69682903456849
C          10.36322243747228   -3.76976939303467    2.25068514481977
N           9.48300617091521   -4.26950693889186    3.12057969331024
S          10.27043112182548   -4.90691868746732    4.36671136047504
N          11.76399579027307   -4.58868032919620    3.87280738160806
C          14.14737260847050   -3.78248998481553    2.41085556998545
C          15.35601238346853   -3.46839225541927    1.80165470294393
C          16.44518737221997   -3.89728214496854    2.54717825010382
C          16.07356235664204   -4.54573443993376    3.74311584599457
S          14.37979821923054   -4.62381772486433    3.94163634007610
C          17.25189656378186   -4.94340103851769    4.42019433822136
C          18.36579768141567   -4.55578613202787    3.65006907299371
C          17.89612294266502   -3.88048404029741    2.45243032370319
C          18.65398826109575   -3.34147065400630    1.45361022777684
C          20.06320903742988   -3.38267296966161    1.48235897405139
N          21.20970637395294   -3.41284370401759    1.50774231309242
C          18.08530513220661   -2.70675955780367    0.32944300826154
N          17.64053187821011   -2.18700194906653   -0.59107075149490
C          19.57659551712146   -4.92118669236634    4.23134070678318
C          19.40533142669108   -5.59010530181566    5.43358778178337
S          17.70519460062881   -5.77197010866279    5.84053099845008
C          20.43421590378125   -6.06608337318398    6.30929827072973
C          21.74529581033887   -5.79929851033268    6.10579545471650
C          22.77327517512283   -6.25502242791710    6.99595472339997
C          22.51741162592283   -7.10074003706517    7.99563071740445
C          21.14252150313435   -7.67297254992150    8.20045878172098
C          20.02020584237035   -6.81371419144724    7.57156034310350
N          18.82603863343349   -7.57344274259076    7.29057473431757
C          18.92147949572430   -8.80488481845398    7.05202392751088
C          20.19733566908481   -9.53497778441866    7.15954102176030
N          21.21275064019790   -9.03151391766026    7.69990963856212
F          20.24917631080428  -10.77178746595622    6.67720112561696
F          17.82749555969446   -9.49257554583527    6.74634831380264
H          -2.86401391504341   -4.18115369870659   -0.13735644700834
H          -1.50346603709293   -4.33423690930881    1.92069199237219
H           0.94178420908122   -4.19733181833480    1.81358101320538
H           0.79641720619161   -3.46659413941234   -2.32093951837564
H          -1.03576008264958   -4.86995780013302   -1.94270344534006
H           2.72036559881751   -2.29261396542131   -2.12118408713720
H           8.84353209702191   -2.01970592281924   -1.29001218649469
H          14.12278334161602   -1.42591968519979   -1.71161602858928
H          11.70886228157751   -1.08967990135463   -2.50821646474260
H          15.39532755963446   -2.95388803711415    0.85993641345275
H          20.53705062268581   -4.71858544406943    3.79579136255679
H          22.05270883296353   -5.22393813390223    5.24794410931598
H          23.77629542254470   -5.89583230310769    6.82407983430418
H          23.29152992444129   -7.49463091591222    8.63225733356211
H          20.95234395801662   -7.77402431590416    9.27849493356461
H          19.71269991338271   -6.04670834177332    8.29747878108212
