93
 SCF done       -192.794286680203          0.000932020383
S           1.00816428494929    0.71743109960535    4.36377772413088
C           2.01379489866909    0.34306823353116    2.84399847290681
C           1.10752961526113    0.66714601315602    1.65503143279423
C           3.25043520521574    1.23550174390345    2.89473602781663
C           2.34469419493163   -1.13058372318052    2.94352815040190
C           1.72123372640280   -1.77697408409800    3.98504685021015
C           0.93178127462767   -0.94515624144528    4.85464237009607
C           0.20982434605642   -1.33484592640789    5.95305449113171
C           0.09983079751994   -2.65289937516645    6.43408669044905
N          -0.04358208692721   -3.69448214852015    6.89286999736922
C          -0.50262235278348   -0.37712568022089    6.70480107121190
N          -1.07972967328704    0.40866243809799    7.30899363162289
C           1.77776448444722   -3.16766116263112    4.20529831481836
N           1.80216717221715   -4.30510313839403    4.35228241288799
C           3.24419517111621   -1.74235007922688    2.02627940435973
C           3.71385385602889   -1.23591529588253    0.81940466395733
C           4.60576233806233   -2.09326771893517    0.19101138455868
C           4.84791046382069   -3.27116746849697    0.92967796059431
S           3.95580515494084   -3.32385550052226    2.37673697848982
C           5.76189550170758   -4.07672399409257    0.21136894044473
C           6.09023181609348   -3.40943469551036   -0.98975413328587
C           5.38179345024141   -2.14105528976460   -1.03666214752713
C           5.43623362708427   -1.19224714521309   -2.01547224567371
C           6.22999835059301   -1.34495678132662   -3.17204939515275
N           6.87419033020291   -1.46398666525788   -4.11265323897744
C           4.69786503936559    0.00538666514089   -1.91462888303341
N           4.09039998683263    0.97198007368018   -1.80622703526685
C           6.97580996729521   -4.12701923695364   -1.77896672842744
C           7.33687463611302   -5.33301957342451   -1.18650238528746
S           6.56859251940206   -5.57536640157364    0.37380012130026
C           8.21421244438377   -6.31074858423904   -1.72107383331801
C           8.55416653743710   -7.46615960721570   -0.98127504572808
C           9.43985094286189   -8.47629237448788   -1.49582027198406
N           9.73238068404153   -9.54239603688901   -0.74418388690441
C           9.21338733745115   -9.66442991062275    0.45377395010177
C           8.33005549389780   -8.65958035978104    0.96559402451782
N           8.03219455879154   -7.60776750088204    0.24213630779417
C           7.77558363560695   -8.78869430460488    2.26376691474891
N           7.34797974135009   -8.91932256921265    3.31765378509898
C           9.54504791506524  -10.80159046583822    1.23173625335313
N           9.80511802084216  -11.71318704471422    1.87386538879901
C          10.01969302595212   -8.39237634990299   -2.78260650750037
C           9.68324457969961   -7.23682301004451   -3.52612381091572
C           8.80319401251367   -6.21480779989799   -3.00402767132817
N           8.63577651193417   -5.22411791037612   -3.88148062614839
S           9.48090299284853   -5.53078304482872   -5.20698573086532
N          10.10795820152272   -6.93219413475302   -4.75314849379272
C          10.87132655611152   -9.41667509879144   -3.26661490706597
C          11.46914335823013   -9.47996375781633   -4.52159987642978
C          12.23680107597647  -10.62425909026484   -4.67251287960234
C          12.23247287025213  -11.43973946042344   -3.51953232700150
S          11.27093548044443  -10.79726414451272   -2.25832118171845
C          13.03631756402960  -12.57092290414030   -3.78094064103272
C          13.54635018886269  -12.48236012898041   -5.09250780863033
C          13.07208044565295  -11.24417592668202   -5.69024114546987
C          13.36194296534639  -10.75517286912397   -6.92850516476829
C          14.24438379288565  -11.41341478299920   -7.81355185880131
N          14.98361281013496  -11.92544559140578   -8.52359236111448
C          12.82194155744239   -9.53624450619245   -7.39357979526710
N          12.38223290150328   -8.54799126590389   -7.77295830930460
C          14.32363959530987  -13.57824478839922   -5.44825072482349
C          14.43164608646146  -14.50616344139315   -4.42122728465160
S          13.55017715106829  -13.98442714982580   -2.98510577029247
C          15.15248940072468  -15.73434897367840   -4.46411084227433
C          15.42262101989705  -16.41234384721819   -5.62698602098255
C          16.27145250735986  -17.56630472962483   -5.48548777434476
C          16.69494448515518  -18.41061206633495   -6.47793768006761
C          16.37021959513848  -18.28121046677563   -7.84174255555972
N          16.15507848448640  -18.24159542554042   -8.96766860973907
C          17.52921306412510  -19.50532142660818   -6.17008557422229
N          18.20364260196332  -20.39502189479296   -5.90817172367762
S          16.75581827477785  -17.78427263929756   -3.83102884069750
C          15.70072651378777  -16.38319620592456   -3.21782275592820
C          14.60153879933249  -17.00396309568621   -2.35496725983826
C          16.58668712420531  -15.43951127996036   -2.41103826583577
C          14.83998368193768  -16.08693199415157   -6.86955906619815
N          14.29852802673617  -15.82862231541513   -7.84640922960621
H           0.74951460582423    1.69017034976821    1.74522772348357
H           0.24718524813019    0.00104549488043    1.64168590956251
H           1.62964671060296    0.57547084173567    0.70815427046833
H           2.94413078230175    2.27689231654782    2.96093099699452
H           3.86444456324375    1.11392888501009    2.00720378839950
H           3.85318811874896    0.99741638867265    3.76906367502167
H           3.40671264307168   -0.29837780593371    0.39870713850143
H           7.35913089195286   -3.82550961731210   -2.73641751048248
H          11.32403074307832   -8.71234596595002   -5.25918718645028
H          14.81462761048578  -13.69081962080410   -6.39708144333707
H          13.95701091932831  -17.64186489578027   -2.95664219628908
H          13.99418468252053  -16.23575488065227   -1.88327801425033
H          15.05451637005550  -17.60920493047093   -1.57311597714195
H          17.36679095488550  -15.01586306277961   -3.04057951729049
H          17.05743136228526  -15.98530702493923   -1.59703548135706
H          15.99779108173687  -14.62950313659921   -1.98667958590575
