127
 SCF done       -254.433907226527          0.000266747707
S          15.69392038148337  -16.02800449881299   -5.22222267817029
C          14.40291503182257  -14.82519058671623   -4.63525401927656
C          13.40713592787681  -14.68451820018088   -5.78746414453066
C          13.77004735784934  -15.42638506122180   -3.38319967650472
C          15.15367733225715  -13.54206248228461   -4.35937178302329
C          16.48013390726215  -13.57848699887298   -4.70872038767672
C          16.96210864286834  -14.84352014201159   -5.20274538081372
C          18.23547435858504  -15.15907367924448   -5.59811713013065
C          19.34067921800769  -14.28759373979249   -5.58937200421552
N          20.29776664792927  -13.65539438280937   -5.60851774237483
C          18.52822977663227  -16.46241860208849   -6.05189819602508
N          18.75573389562937  -17.52421109355018   -6.42163149728923
C          17.35671973777215  -12.47454466100802   -4.66115723728842
N          18.06524824804857  -11.57278007830391   -4.66998035589590
C          14.49881770110120  -12.42833137337515   -3.75194636647182
C          13.15430160134246  -12.24246262188481   -3.53796690187365
C          12.83067801290687  -11.05522766227872   -2.85258531835691
C          11.54867274046320  -10.60739610502592   -2.45551363101859
C          10.34737608502428  -11.38843959984174   -2.65944580210659
C           9.08594628603503  -10.93592021147566   -2.92417064924674
C           8.12906022385338  -11.97180236723592   -2.98521060061053
C           8.62875665339411  -13.22132072889893   -2.75990849826393
S          10.33290895067461  -13.12622691568796   -2.47471778950708
C           7.91894793884768  -14.52430774987221   -2.74374333395820
Cl          6.46764670323006  -11.66385118395310   -3.31360856700534
C          11.50129841513455   -9.37553810078793   -1.81330096922112
C          12.65948199823565   -8.60398982392460   -1.52590081405883
C          13.94540354970318   -9.06745124830636   -1.88742639615416
C          13.98453784360309  -10.28529673044812   -2.56186305488572
S          15.42720986137898  -11.08341491486358   -3.10811573023651
C          15.15566883704729   -8.34843791724358   -1.56253626436354
C          16.31162380063579   -8.26808552957425   -2.29277156790154
C          17.31046950319747   -7.50589718904971   -1.65448265082766
C          16.94831922591940   -7.01030952055633   -0.43192351337425
S          15.33192617817954   -7.48365809566799   -0.05581412808279
C          17.73894351651892   -6.17548038953386    0.50497561983180
Cl         18.85120694556739   -7.23005693219208   -2.36568971953765
C          12.33441672559236   -7.40001216400746   -0.87253906537487
C          10.99613280445879   -7.24712039476265   -0.61149643844968
S          10.06095380327486   -8.59843435415757   -1.21259791937503
C          10.33660446600925   -6.17172750578883    0.05700993124454
C          10.99269489599661   -5.06133333348662    0.64012124830176
C          10.27393758242891   -4.01062026456849    1.31699252915977
N          10.97199908369218   -2.98989060423812    1.86246012528666
C          12.25985482858889   -2.96243497076945    1.76944006679004
C          12.96518659964281   -3.99483308163034    1.10326403688244
N          12.33956854932268   -4.99027295138528    0.57042568882692
F          14.29462832040061   -3.98093015260936    1.00829843304441
F          12.89515483476100   -1.93395202546847    2.32681453749831
C           8.86447002808292   -4.01624087348528    1.44034656700254
C           8.21720295742502   -5.12950498257814    0.86758543208179
C           8.93405660283963   -6.17915740430595    0.19396639695738
N           8.10892244783845   -7.12413781687141   -0.26159660732853
S           6.59916350333856   -6.73771888434132    0.11576372259403
N           6.90240553817797   -5.35794600209694    0.87276663277379
C           8.09960905026185   -3.00737939267681    2.10318909776939
C           8.53612628138064   -1.84012629188914    2.67959286569837
C           7.51378580817219   -1.08583500839048    3.28694807296337
C           7.63649278097724    0.16621471702774    3.93440686676717
C           8.92958711710884    0.77744522483013    4.14551201378833
C          10.10590971392923    0.16706273751382    4.48109150348053
C          11.17837259673997    1.07555611808835    4.60278046871909
C          10.84439157485026    2.37797270595503    4.36233946152838
S           9.15948038547627    2.49944166013748    3.98636078804193
C          11.71390729501199    3.58006706748758    4.38501038987167
Cl         12.76842152977061    0.56645988042637    5.01918851098131
C           6.45087355011571    0.74959016940378    4.36125743220055
C           5.17950129792187    0.14094489683907    4.20914396196048
C           5.05724355071553   -1.10878345634534    3.55778259173688
C           6.24243251313442   -1.69635176094702    3.12905513674073
S           6.36877463017041   -3.20602318155279    2.26860473503104
C           3.77382230669855   -1.72117811052123    3.30236362741118
C           3.45784393077624   -3.05296368581012    3.28773308300363
C           2.11298290580549   -3.28467466660703    2.93862502256908
C           1.39247132721816   -2.15381976178263    2.66861387548428
S           2.38944027269161   -0.75915019449156    2.85108559075751
C          -0.03079352489360   -2.02599935738960    2.27062666018216
Cl          1.44099228400406   -4.86740754227923    2.86176953034483
C           4.15722956417655    0.90046896766590    4.81082606357267
C           4.57949494209079    2.07782785720865    5.37768524179587
S           6.32022206444502    2.26480549161490    5.20013534962440
C           3.76304985459863    3.03516218783137    6.04967749912888
C           2.39297939427026    3.08179358635795    5.95568047171876
C           1.74725941844852    4.05481197069323    6.79996963925202
C           0.40157817885696    4.28025607973730    6.93321568717968
C          -0.61527350679506    3.56366280245339    6.27572628683237
N          -1.50547633364055    3.01979347393198    5.79754316195673
C          -0.06496043880548    5.28278866411351    7.80861725031388
N          -0.43793827865418    6.10212102005199    8.51966620289393
S           2.91118052194389    4.95809446643879    7.71706365886963
C           4.36084648519375    4.08506726526347    6.95261063273761
C           5.14947466203943    5.13515882930526    6.17056906588270
C           5.18703020520951    3.48309030805637    8.08558111987378
C           1.61769965710838    2.31457320476268    5.06319859309324
N           0.99116537090471    1.72474667652823    4.30416253564380
H          13.02291951484636  -15.66678148210745   -6.05374444477903
H          13.89772206607549  -14.25791901710685   -6.66038095357916
H          12.56861404883574  -14.04921524982528   -5.52055457556793
H          13.35007243308503  -16.40117591443610   -3.62057245297632
H          12.97904996183079  -14.79247448911974   -2.99285521592491
H          14.52237342104180  -15.55548676091123   -2.60756762288134
H          12.39697967778286  -12.91659906798893   -3.88410036182112
H           8.84037987657201   -9.90676599106398   -3.10499059666661
H           6.86166706665712  -14.36543427710065   -2.93966801108342
H           8.03068627303749  -15.01113656136081   -1.77537114078155
H           8.32289423783006  -15.19333550101062   -3.50310949595466
H          16.44810541419359   -8.69320108765312   -3.26987153861310
H          18.63402809635911   -5.81328082080663    0.00566369958948
H          18.03697498800180   -6.75528465784916    1.37904762882596
H          17.14859199205269   -5.32779560284912    0.84916061618971
H          13.04763795353338   -6.64836879324381   -0.60049172617242
H           9.56123413359110   -1.53186764787446    2.63200055117360
H          10.20510553943642   -0.88351731795730    4.68000914389084
H          12.69777130691757    3.31164712693947    4.76128946522081
H          11.28548239043295    4.35281682843146    5.02144945728829
H          11.82258619167992    3.99396559039303    3.38242496620619
H           4.13779032232292   -3.84023405721782    3.55385964303984
H          -0.11780206255220   -1.91726540149239    1.18870209708345
H          -0.47429255326111   -1.14731830124791    2.73416130325534
H          -0.58193567404637   -2.91403792847308    2.57184514959566
H           3.14138737627398    0.56299639278951    4.86963485841173
H           4.54540174111466    5.54125943898346    5.36147610822959
H           6.05470875012504    4.70501948439604    5.75028683044871
H           5.42949326470089    5.94806341367307    6.83662609516576
H           4.60455402619274    2.74284587400161    8.63079897650404
H           5.48525788523570    4.26749998952566    8.77708883686498
H           6.08282279260010    3.00799105568905    7.69393652510530
