127
 SCF done       -232.324434455511          0.000297475066
C           1.49478829372865   -1.57550467177055   -0.39350938963268
C           0.31925477836141   -0.82652483572234   -0.49589028625919
C           0.41089374516062    0.55904410983020   -0.63406475732646
C           1.65661147474312    1.18659806950410   -0.67179935748953
C           2.80107762715653    0.42733422417105   -0.56846276500480
C           2.72269304555955   -0.95647670493922   -0.42818715130266
O          -0.69142345849868    1.33813873858866   -0.74169793062626
C          -1.91559770962275    0.78435631751179   -0.67936909014682
C          -2.98015117072031    1.82450383846322   -0.82251190217872
C          -2.13334251614534   -0.55188485544008   -0.53207610885756
C          -0.99429577339917   -1.48704955061096   -0.45930043704105
O          -1.10878816775208   -2.69618995460109   -0.36536719625096
C          -3.46048993785279   -1.13149947778209   -0.42858695480078
C          -3.84504181853566   -2.34849650473070   -0.89968619814642
C          -5.18184653122786   -2.69732184852533   -0.58386128404108
C          -5.86508896599481   -3.89141105137279   -0.89888467170276
C          -5.29386177379809   -4.93079128796468   -1.72805278955351
C          -5.44551119074232   -6.28411209107972   -1.60395324171604
C          -4.81801685473206   -7.01623978663822   -2.62956781371853
C          -4.19458678055033   -6.23364135136276   -3.55139548879792
S          -4.35995955765687   -4.55530337458412   -3.15235438224239
C          -3.43937966921465   -6.64994045361643   -4.76155501629322
C          -7.14740701767153   -4.02479587021217   -0.38063163438558
C          -7.77705665474467   -3.03082030506763    0.41005607776182
C          -7.10595309773294   -1.82071411953415    0.70417016519986
C          -5.81997402153101   -1.69793900669210    0.18843712837753
S          -4.75404165752584   -0.34529256880406    0.45746385376989
C          -7.70429300425417   -0.76393637912287    1.48844768008892
C          -7.59081467454552    0.58666806930429    1.29723918762787
C          -8.27702007126375    1.34892258492678    2.26092550433909
C          -8.90524115037499    0.59314597554803    3.20327288977489
S          -8.66794036001775   -1.09636602256819    2.90338107772075
C          -9.71610836705978    1.04573745359816    4.36369785716940
C          -9.09103755721618   -3.39834414740460    0.75793683208948
C          -9.47183158433870   -4.62502795266789    0.26809300768067
S          -8.21164089253614   -5.38131887642721   -0.67112050808312
C         -10.72164815555607   -5.27332504747097    0.47277526339271
C         -11.00460555844703   -6.50610061505756   -0.15418784224270
C         -12.25916926965467   -7.20654019872897    0.00357318696101
N         -12.46736894643761   -8.32442445045420   -0.70554206333134
C         -11.52011522595713   -8.80006165736265   -1.48069253994881
C         -10.24733923743070   -8.15398524142512   -1.56721382643936
N         -10.04322323894346   -7.03035669595818   -0.92224225859841
C          -9.20267715684060   -8.70774539169757   -2.34436144875515
N          -8.37873178007196   -9.19073865310833   -2.97794431158411
C         -11.80081740975484   -9.96374825015074   -2.23703674738569
N         -12.02466226561436  -10.90254403645024   -2.85558570863219
C         -13.26186026021463   -6.72366382665369    0.87779738633146
C         -12.96855988406727   -5.49826437101161    1.51626151932297
C         -11.73914607766391   -4.76834792443815    1.31107743876524
N         -11.71934337797449   -3.63573671206720    2.01423431840349
S         -13.08967492797754   -3.50333242068801    2.84609960544706
N         -13.78226068255553   -4.86860494219890    2.36129445207584
C         -14.49824138722600   -7.38669868749077    1.12542466912620
C         -14.94982279537225   -8.56440166378437    0.57876396579625
C         -16.23337012487789   -8.94062816400817    1.01186118221890
C         -16.96162925800362  -10.09474852802187    0.63692528354932
C         -16.46115760418715  -10.98015118083902   -0.38751738482418
C         -15.80019654422191  -10.64913067007330   -1.54058320471192
C         -15.41358533371647  -11.76406559162781   -2.30616086536075
C         -15.77116851267219  -12.95362156830281   -1.74871854916488
S         -16.62227947524960  -12.71220186474271   -0.25707293057849
C         -15.52410845125670  -14.32423151145178   -2.26474023352643
C         -18.16442572975102  -10.29628268079282    1.30283104424964
C         -18.67377948035917   -9.41114321044343    2.28237914933595
C         -17.94745251315778   -8.25610406355560    2.64584544846949
C         -16.75200316934221   -8.03825195811309    1.97448146887537
S         -15.65791580788028   -6.70447183648003    2.24543310231284
C         -18.41946147953567   -7.37104475673580    3.69022976799746
C         -18.97194714211699   -7.70904234621273    4.89381694012754
C         -19.29697032428210   -6.59412517185065    5.69102644997149
C         -19.00242989420994   -5.40379924774883    5.10128721305079
S         -18.29672014610941   -5.64136382192599    3.53573142705837
C         -19.21106001301797   -4.03129454806776    5.63281481068642
C         -19.94982102057891   -9.81572009795526    2.74635574350410
C         -20.40747370421662  -10.96994535386483    2.18640630272561
S         -19.26650376549746  -11.61305431524439    1.01806932801989
C         -21.69876327191240  -11.58810220977402    2.42814566592218
C         -21.90340206684359  -12.93450588131829    2.35451304463286
O         -23.09891535047934  -13.51864602007071    2.55088115142368
C         -24.18902873625951  -12.76439050969135    2.82339257930801
C         -25.40870183915535  -13.42025158297131    2.99516152501317
C         -26.53815587179785  -12.68528676350340    3.27951862959264
C         -26.47009992230972  -11.29862865402283    3.39632944425333
C         -25.26750422520904  -10.65245837008718    3.22831279172077
C         -24.10744559214929  -11.37655200473597    2.93899688022310
C         -22.82006350577862  -10.68812946069735    2.76241749528180
O         -22.71708845326622   -9.47932493266901    2.88039085969854
C         -20.85495967214185  -13.96397013359385    2.07949878469060
H           1.39869207755494   -2.64529170721021   -0.28675948147829
H           1.69641052315804    2.25893458865695   -0.78077430769441
H           3.76576835798371    0.91089877030355   -0.59622993169108
H           3.62713244224542   -1.53949969300197   -0.34741328300512
H          -2.54195195758549    2.71629946189987   -1.26416240792342
H          -3.38863941559218    2.08650157431571    0.15261674958498
H          -3.79344993940836    1.46568675477568   -1.44707102847189
H          -3.17715340798495   -2.98878576899841   -1.44320321192276
H          -5.96076872417104   -6.74814576203212   -0.78316665421179
H          -4.84008805589273   -8.08979132791716   -2.68458387487642
H          -3.48844455739367   -7.73034371082442   -4.87297548139781
H          -2.39386943120817   -6.35061449636444   -4.68471741915897
H          -3.85467821856171   -6.18405048642457   -5.65476564585521
H          -7.06478704288165    1.02092897161131    0.46650972045891
H          -8.30406512120094    2.42429599438614    2.25424810793353
H          -9.75498511083770    2.13216437908472    4.38869901381599
H          -9.28490032598564    0.68752653966098    5.29822205641500
H         -10.73252018296917    0.65816812097794    4.29683454968328
H          -9.76468702178250   -2.79537389108885    1.33679944160552
H         -14.34957883663969   -9.14741100916206   -0.09188747714171
H         -15.63503884816812   -9.63396344793873   -1.85312360331223
H         -14.87235344081890  -11.68523274591372   -3.23173001563856
H         -14.88343289292480  -14.27652484322762   -3.14166243821575
H         -16.46201067281210  -14.80804884488955   -2.53907054450983
H         -15.04108646921329  -14.93965661669302   -1.50694992628663
H         -19.10236650492351   -8.72637658837925    5.21693056904427
H         -19.73469077890438   -6.67538654180142    6.67044568917002
H         -19.65635278978796   -4.08005558870201    6.62370008052347
H         -19.87080233738127   -3.46201132544609    4.97860843228973
H         -18.26379671407899   -3.49649574866965    5.69748523358440
H         -20.52554510146788   -9.24837060630258    3.45194988273132
H         -25.44039820172769  -14.49420114448548    2.90057161500955
H         -27.48309834433018  -13.18993264044921    3.41235497766894
H         -27.36286109470204  -10.73476561209718    3.61887907392058
H         -25.18029951793730   -9.57989588696729    3.31252006163734
H         -19.93446865806280  -13.74076953101042    2.61176250049425
H         -20.62790480116440  -14.00331524154577    1.01510489767162
H         -21.23207022059012  -14.93608088284689    2.38810376902604
