89
 SCF done       -177.302108421390          0.000702061833
C          -2.02034513543977   -1.33569707727977   -5.68588580948404
C          -2.42665872371626   -0.63645123727662   -4.54432018900788
C          -1.94837867181761    0.65918721847249   -4.33326727436471
C          -1.07454818051296    1.24821752581907   -5.24915372518038
C          -0.68541915959735    0.53924919674934   -6.36309978334272
C          -1.15720012583474   -0.75451146058405   -6.58399417551563
O          -2.32507666606527    1.38444225495332   -3.25794434492237
C          -3.12685370910733    0.85850002296450   -2.31562340641148
C          -3.41323976487863    1.86660704343447   -1.25229819605121
C          -3.61954533395287   -0.41871830706793   -2.38617246001016
C          -3.34719657913071   -1.22735170795273   -3.57917951255058
O          -3.87202543566024   -2.32203918566398   -3.75274628755036
C          -4.44637592869162   -1.05043675420007   -1.38923959048828
C          -4.68485891593004   -0.68628805206743   -0.07853507362627
C          -5.55899196717014   -1.56501667442285    0.56197851988558
C          -5.98664598126496   -2.61119029740759   -0.27315538586333
S          -5.28626354427827   -2.53188200511746   -1.82959247127249
C          -6.87062176485914   -3.43989766266619    0.46767941117707
C          -7.00413673569642   -2.90162088719988    1.76355320072201
C          -6.18093871870094   -1.70757466325978    1.86440239357660
C          -6.03355978138692   -0.88533124510861    2.94580030052945
C          -6.69414617538238   -1.11101916733423    4.17018503509538
N          -7.22285366360248   -1.27706531789438    5.17467562336353
C          -5.20701887069597    0.25427720297908    2.89672663274412
N          -4.53561488151784    1.18400407775725    2.84489599902598
C          -7.87477791949098   -3.62898507780903    2.56407850440266
C          -8.40712857807265   -4.72121997791033    1.89123740825435
S          -7.81098575460427   -4.85237914450271    0.24415223143845
C          -9.35018180186375   -5.65374356611468    2.39111542041150
C          -9.81283865406736   -6.72369154057446    1.58741120013739
C         -10.80487226495355   -7.66552176611323    2.02091797507545
N         -11.17573420491060   -8.65343061839735    1.18345994086781
C         -10.63229382064761   -8.72652590698376    0.00028201678220
C          -9.66792561791480   -7.79480457259347   -0.42945388568193
N          -9.28115946060271   -6.82952154020848    0.35651446725421
C         -11.40047738609115   -7.56462229634204    3.30606955972904
C         -10.91425444801330   -6.51780695962301    4.11831400721954
C          -9.90907326417896   -5.57854468971184    3.68423324444781
N          -9.63078762560251   -4.68596042680711    4.63641046073539
S         -10.52505193126423   -4.98786928640624    5.93115546301138
N         -11.32034942959587   -6.26349645779844    5.36369255449757
C         -12.43726491281388   -8.41491848930636    3.77672639269166
C         -13.04786562166456   -9.47598530480936    3.12089605098651
C         -14.05758685910331  -10.04938649981621    3.88260193727659
C         -14.22578112840207   -9.42579111433279    5.13492297304278
S         -13.13090230774215   -8.13941654923232    5.37284396492374
C         -15.29698643624816  -10.06104737417933    5.81692033212340
C         -15.79083988417524  -11.08931767754287    4.99610812755400
C         -15.03507182699446  -11.11918273986919    3.75875880868557
C         -15.21471509342251  -11.96303382544494    2.69905308616917
C         -16.21872470136553  -12.95113376248428    2.70662779378316
N         -17.04365097429517  -13.74936370764068    2.71975206907153
C         -14.42335221882185  -11.90231235671146    1.53433932226670
N         -13.79151412282166  -11.86906453340802    0.57709349579769
C         -16.85859374514912  -11.77539116310067    5.57716637808273
C         -17.17848542599634  -11.27973803168675    6.82540950567990
S         -16.11388598459157   -9.96855432978134    7.31427950511715
C         -18.20315645762800  -11.69774402120258    7.74828714695768
C         -19.29569363397737  -12.45933724659752    7.42654456642214
O         -20.19932930968328  -12.86040085236232    8.33756667925081
C         -20.05681969008658  -12.54056521875616    9.64239648178252
C         -20.99697424752820  -13.03827761889604   10.54663529738393
C         -20.88681401895977  -12.71731821725563   11.88078929330047
C         -19.85111739005005  -11.90017569216602   12.33313834100516
C         -18.92697427151505  -11.40426019987053   11.44461161462246
C         -19.01552476197071  -11.72050107336320   10.08475370770395
C         -18.05207535397741  -11.20155917054729    9.12008745159720
O         -17.17988147154518  -10.39514223411813    9.42420157743370
C         -19.68670723271091  -12.91740367960916    6.06055745968767
H          -2.40534791114629   -2.33370293912674   -5.82873909318196
H          -0.72198460881412    2.25021168209541   -5.06288473615635
H          -0.00906059653375    0.99117895535298   -7.07248711247657
H          -0.84312040446082   -1.29580339309146   -7.46287296840219
H          -3.12987364133847    2.84939901146916   -1.62222969845157
H          -2.83252744462897    1.66393342009940   -0.35337105490972
H          -4.46860132741458    1.86610847934273   -0.99143482653170
H          -4.23006694859158    0.15019758457889    0.41178943992795
H          -8.13440263704367   -3.40441450514637    3.58224363807807
H         -10.96131221238475   -9.54056972928615   -0.63057509230527
H          -9.21405245967230   -7.84211944882231   -1.40905873818053
H         -12.74627145962744   -9.78184837180140    2.13671731939241
H         -17.34194312606046  -12.61274226424034    5.11573947117017
H         -21.79225097654220  -13.66673996757224   10.17845815974770
H         -21.61092958324393  -13.10215564436599   12.58255689690467
H         -19.77964859777227  -11.65793544462451   13.38208839796078
H         -18.11563367101333  -10.76712244363057   11.76164632767951
H         -19.52945089929963  -12.12956696202143    5.32830891210606
H         -20.73756151288663  -13.19770979860443    6.07651972200806
H         -19.10971432140746  -13.79121454911765    5.76035567604165
