125
 SCF done       -221.269442381086          0.000453536990
C          -3.53061415811335   -1.26662511182100    0.45635796786425
C          -4.35511881559579   -0.45616492999174   -0.27882747009820
C          -4.24463457460029    0.94244122962814   -0.25899388325444
C          -3.29748834452756    1.60301955924662    0.50325265297410
C          -2.43127269485113    0.78426447734061    1.27231348167062
C          -2.55035921571447   -0.64893408798144    1.24784932213988
N          -1.64717599859583   -1.23566586111216    2.03691058332853
S          -0.74931589923714   -0.09993752942956    2.73028031410804
N          -1.45030755670302    1.18961960135303    2.07438769630609
C          -3.16291909584053    3.03673562361940    0.53559350582622
C          -3.93407949202015    3.96587562564432   -0.10962300265263
C          -3.53381816704070    5.30129875526443    0.12129044253161
C          -2.42603291147267    5.36656795607827    1.00582229498173
S          -1.89558357031767    3.77357321346882    1.48407755752691
C          -1.84733716657090    6.56158644607414    1.39604406744399
C          -0.66933609293469    6.64891130800258    2.26384675872688
C          -0.61749458301138    5.98022996007176    3.48246683105292
C           0.46972815845562    6.13933994714751    4.32150977851294
C           1.53580913866936    6.95510688829626    3.96649717436312
C           1.49922085860828    7.58952852725051    2.72851643207296
C           0.41465143582756    7.44435459654978    1.89051241898904
C           2.69706133835334    7.17669099009052    4.88210285670108
C          -2.45202699367533    7.73735255343998    0.90619210503102
C          -3.56043887360973    7.67535929036420    0.02195475627272
C          -4.10830955531621    6.47833393598781   -0.40163566232327
C          -5.22620170921729    6.42696961234610   -1.35315045460559
C          -6.38370750882523    7.16764322982840   -1.13012692238252
C          -7.43296001899967    7.11384790669971   -2.02563097541332
C          -7.35821887193534    6.32832623884874   -3.17033663831008
C          -6.19794211406506    5.59891785424440   -3.39575381388943
C          -5.14565204459703    5.64384379024629   -2.50119787403813
C          -8.49684923081832    6.29213654752041   -4.14317310673981
S          -4.07826520948300    9.27856387739576   -0.45191067142444
C          -2.85199535365539   10.00999408462456    0.56772659659335
C          -2.09572317670476    9.06191882285481    1.21482527540275
C          -2.73278518220591   11.42702723319113    0.65626489445376
C          -1.77814469381499   12.09631327928536    1.46019035797888
C          -1.73496366868669   13.53954953951543    1.52475527696716
N          -0.85143483519177   14.14194206282818    2.32824007264407
C          -0.01177165938437   13.43440168482830    3.04408248976257
C          -0.02182560581113   12.00757411580983    2.94340117725497
N          -0.88831858885284   11.39220796465300    2.17352565216676
C           0.90773425025225   11.22413739498367    3.66989420258466
N           1.66766110218219   10.60485095196749    4.26394905883028
C           0.89264320482297   14.09559518731009    3.90875327088883
N           1.63495717212825   14.59171243228137    4.62739435100682
C          -2.59267899521257   14.37694066022431    0.77825350374035
C          -3.52864287577764   13.71025201730443   -0.04195003422635
C          -3.59275539689475   12.26759352594998   -0.08504822807349
N          -4.54884494541252   11.84008879011958   -0.90776551329102
S          -5.28937819350737   13.10458151490846   -1.56350656190948
N          -4.44163341184592   14.26437163712184   -0.84059954856424
C          -2.49104680159620   15.79334270711890    0.87638617481885
C          -3.24524044184533   16.72329504285448    0.19847785387827
C          -2.90308143379855   18.05619339375692    0.49962146921996
C          -1.87455970667356   18.12763743229521    1.47426222605669
S          -1.32217216314956   16.53470244342224    1.94228674577455
C          -1.36846706817271   19.32364377480022    1.95191358594689
C          -0.26005577631934   19.35835852195738    2.91386213255044
C           0.86192394814456   20.14983433148064    2.67745381612070
C           1.91765465969873   20.14977525518920    3.56661649909583
C           1.88936870097540   19.36278403216692    4.71296336533643
C           0.76837197432791   18.57774549060266    4.94740508890661
C          -0.29248127938204   18.57357491496659    4.06285804294760
C           3.03988985481374   19.37562515727006    5.67136017504702
C          -1.95465573495184   20.50086213953557    1.44912921825737
C          -2.98502641848314   20.42765619844680    0.47626687712395
C          -3.46561862849232   19.23442855244820   -0.03516599309845
C          -4.48124493232780   19.18241078903952   -1.09196988276051
C          -4.27132223020898   18.40912901096126   -2.23274084489097
C          -5.22017887507602   18.36511287095356   -3.23335425383111
C          -6.40583974162851   19.08481564546446   -3.12808396987881
C          -6.61146629738887   19.85521470675558   -1.99136057315719
C          -5.66387059456950   19.90826325966845   -0.98699540455314
C          -7.42021297836708   19.03629585317047   -4.22904457304337
S          -3.50682484004515   22.02294155675830   -0.00310916608167
C          -2.38218536502748   22.76805744223255    1.11953512638753
C          -1.65356076863809   21.83693287387579    1.80179487836886
C          -2.31573478590844   24.20059710423593    1.23888611224398
C          -3.14885242214928   25.03537526860327    0.51713001472311
C          -3.10340540955452   26.43314403089544    0.62069213750212
C          -2.21940521784779   27.06778811809856    1.45143883744657
C          -1.34529156510398   26.26906987609904    2.20523770583740
C          -1.38349356907592   24.83171718266787    2.10745063974768
N          -0.47422206672240   24.26079552249942    2.89593952525463
S           0.33739050827698   25.40964284877299    3.67589410652541
N          -0.41210756722398   26.68822247829370    3.06202147334423
H          -3.61295867897362   -2.34081753397552    0.44230028498515
H          -5.11962943332311   -0.89923476225656   -0.89968119769292
H          -4.92718735782507    1.51627718245228   -0.86591228322183
H          -4.77994658868198    3.71466955651746   -0.72313901566082
H          -1.44813417748530    5.36115353501105    3.78768049424453
H           0.48275330381251    5.62895232224650    5.27406719673363
H           2.32742445886658    8.21601720988032    2.43125097991564
H           0.40645676627480    7.93476697354294    0.92767297457498
H           3.62826989911292    6.89382811958357    4.39301110101031
H           2.59250014612915    6.60029080951161    5.79767970870028
H           2.76254867138277    8.23409307078149    5.13484295599753
H          -6.46590866496575    7.77188475793593   -0.23924911678970
H          -8.32820244622910    7.68798360840287   -1.83365651852267
H          -6.11538532135823    4.98923227095151   -4.28473094740263
H          -4.24210041651890    5.08639325222093   -2.70311346024194
H          -8.49218433959716    7.19409047754566   -4.75590706942187
H          -9.45010033014247    6.25050520689527   -3.61980789318861
H          -8.41904489326691    5.43207994412799   -4.80383518345910
H          -1.31524006477621    9.32035869311613    1.90430947481514
H          -4.02677516071338   16.43827646945482   -0.48148077472349
H           0.91620856055894   20.74396569764058    1.77671611535561
H           2.78423887758288   20.76378377345689    3.36501836680965
H           0.72657966200637   17.95548430074461    5.82925018457474
H          -1.16176713004480   17.96867207828033    4.27284558441648
H           3.04846387245962   20.30862102877175    6.23595404943149
H           3.98495940949968   19.30133399277164    5.13664868122967
H           2.96799829750729   18.54902867560253    6.37317038777499
H          -3.34662499080712   17.86158484442492   -2.34149548981952
H          -5.04004497861350   17.76498039168817   -4.11411756000850
H          -7.52690184845198   20.42020361031173   -1.88799314904841
H          -5.85184459602180   20.49858722806319   -0.10247825638497
H          -7.59390362079512   18.00958591371526   -4.54641899766681
H          -7.06059626724629   19.59501155386810   -5.09345699432352
H          -8.36412935146890   19.47082602415244   -3.90986009127495
H          -0.92937171536139   22.10940686524163    2.54678729477890
H          -3.86730979196477   24.58881825160822   -0.15511639860631
H          -3.78974839032418   27.01539229541816    0.02432704327754
H          -2.17500594543587   28.14063156152057    1.54067353410151
