75
 SCF done       -166.449870299829          0.000916119291
C          -1.57635097988791   -0.49550262645522    3.47440427998752
C          -1.05559419538861    0.62514415326010    4.06630664546789
C          -1.05657074521190    1.86977602539551    3.42308459406630
C          -1.57772416709548    2.05968919346900    2.15430987856738
C          -2.12507578518430    0.91297793328834    1.51574271927640
C          -2.11879643067364   -0.36121477135589    2.18726087179454
N          -2.67155784891891   -1.32040014664826    1.44117534656566
S          -3.14644430022230   -0.68555725264766    0.04787678357468
N          -2.68183808438105    0.83059122152392    0.30868262081393
C          -1.57140515699364    3.34126601200666    1.50755293684674
C          -2.04751558030221    3.65562737900079    0.25051076144604
C          -1.87641253631627    5.00620739425461   -0.05490467227842
C          -1.26247099046658    5.72996907057203    0.98384965152395
S          -0.89880412593331    4.74556596606684    2.32830756082605
C          -1.13027214919027    7.08242969511562    0.58796375649231
C          -1.66424441817492    7.21343379108830   -0.71125210346734
C          -2.14927582076696    5.91523672747348   -1.15513398154496
C          -2.73497896023068    5.61708985443566   -2.35046515875564
C          -2.94746327786928    6.59185556838967   -3.34844615264462
N          -3.12752888377600    7.37410490542704   -4.16769056677815
C          -3.16821410316361    4.31425296053127   -2.67627267341291
N          -3.52867404928815    3.26169967114452   -2.95427093549040
C          -1.58284130237323    8.51066136997713   -1.19681896842728
C          -0.99244900359227    9.37538170680736   -0.28186936377498
S          -0.53257366655885    8.55956351531218    1.20423466195275
C          -0.75510575698338   10.76421922031922   -0.45344091920530
C          -0.15039613622088   11.54403028961339    0.55621689507164
C           0.09566180787427   12.94917026292821    0.40345424988630
N           0.67587815529258   13.62849606465201    1.41193170691981
C           1.00291718268385   13.00946430162730    2.50046403616553
C           0.76005603864748   11.62119743439227    2.65129669748251
N           0.20460376665332   10.93543315829127    1.70458305008830
F           1.09540528675973   10.98233410299012    3.76942285794698
F           1.57375640081106   13.71686701393078    3.47234944990130
C          -0.24701569096051   13.65768661226784   -0.76862965176962
C          -0.85275896430213   12.88271091731913   -1.78783895384061
C          -1.10197602007796   11.46691423679588   -1.63336495442396
N          -1.67959851636203   10.95299267093942   -2.71966756113665
S          -1.88942355820721   12.10597803231924   -3.81307137017314
N          -1.26281083220386   13.32209618707935   -2.97806463643813
C           0.00221079355913   15.04890676689383   -0.89918225087729
C          -0.28552215069999   15.84839070195414   -1.99985466643272
C           0.08273943757260   17.17038596047092   -1.79507165434025
C           0.65801542812444   17.38625560082956   -0.52513897064105
S           0.74427574898472   15.95777210397085    0.40807442793752
C           0.98830157561477   18.75847332962388   -0.41901987799476
C           0.62649714580597   19.41061596334792   -1.61217131768912
C           0.04694725138378   18.43305653376577   -2.51758749315784
C          -0.43009241126587   18.65079201663839   -3.77686686548907
C          -0.41292968752189   19.92537897722270   -4.38210900741060
N          -0.40796963984619   20.95500801711528   -4.88688137504081
C          -0.97345774603763   17.61454392993316   -4.56564535996256
N          -1.41980236834907   16.78245266377137   -5.21655064388283
C           0.91117045106283   20.77634681753669   -1.59340896965381
C           1.48436653984405   21.17284016419729   -0.40180718558872
S           1.67715514710568   19.82785400439593    0.71708328399960
C           1.90056017189926   22.49365121957981   -0.02366144132102
C           2.46926678700283   22.76445700714675    1.20950173141112
C           2.87545694038302   24.04899469801709    1.59397383769231
C           2.73409005606586   25.13083280069511    0.76509820600990
C           2.16387766218686   24.91433507638627   -0.49862580732408
C           1.74290153948299   23.59829326986546   -0.90527506266909
N           1.22893517737972   23.60353736306031   -2.13391627115761
S           1.27138266815340   25.10176438092240   -2.71369956361135
N           1.93916268165800   25.82506941095537   -1.44852394587929
H          -1.58094012921065   -1.45733624530976    3.95968717779098
H          -0.62990268016862    0.55854016449775    5.05610462511571
H          -0.63146609259145    2.71815066713282    3.94022461537500
H          -2.49288073757699    2.91740626804599   -0.39089212377800
H          -1.92351975313198    8.84732802688605   -2.15837980499086
H          -0.74191974979440   15.45041751660127   -2.88717171745886
H           0.71988949450701   21.46959620470703   -2.39186588993187
H           2.60553540246943   21.94997473763724    1.90659611187071
H           3.31035168413044   24.17881094670460    2.57344361635975
H           3.04194676018005   26.12294311171340    1.05074024361348
