67
 SCF done       -131.098197398723          0.000663447506
C           5.18833464084309    1.42771995230590   -1.97467613973021
N           4.32438104095010    0.69843058367060   -1.08848813940613
C           4.48739840546577   -0.68638773429431   -0.88125819485194
O           5.34125636094635   -1.35023677987302   -1.43307789195774
C           3.44473862492145   -1.02615460169539    0.06084976812963
C           2.90711296216001   -2.07124332257828    0.79662042174691
C           3.36580240157024   -3.44559536703124    0.77429426176241
C           3.80425736215434   -3.98680443288892   -0.42109819786448
C           4.27377550906562   -5.30452186634635   -0.52837057237087
C           4.35394741612295   -6.13285279908274    0.55896824708905
C           3.96459809163872   -5.61547642825225    1.80396593464918
N           4.02553622114413   -6.23312327063808    2.98546940396988
S           3.53135620450051   -5.22263315326773    4.12536143394946
N           3.20181875932000   -3.95362710206578    3.19319969049386
C           3.46316919970376   -4.26882629595115    1.92390996120945
N           1.86582559242803   -1.58138297395345    1.52680214514306
C           0.92964471311630   -2.32531889534598    2.32352944005247
C           1.67169764051607   -0.18824691771317    1.30371240140356
O           0.76783113111032    0.42862631065164    1.81268490939669
C           2.72898673887645    0.16410045124907    0.37764820238721
C           3.29399836303639    1.20081513670911   -0.34571879781561
C           2.87428732524695    2.58331538415125   -0.33451872051963
N           2.08364653401392    2.94940656366453    0.68177863866735
C           1.70127681418460    4.20483018472500    0.67274480113088
N           2.01354970200814    5.10173524924401   -0.24761426675965
C           2.79533343952034    4.64820174171690   -1.23201202674588
C           3.14869230691235    5.54521395858019   -2.31444660777597
C           3.56937017762514    5.20539293455789   -3.58648107021235
C           3.83711520389593    4.10241762788718   -4.48316590561934
O           3.73478342513304    2.90066091557581   -4.37325013983229
N           4.25788666513590    4.72493113671772   -5.68311672156204
C           4.51868172056435    3.93925930911417   -6.85815602389732
C           4.22293618610791    6.08659895147698   -5.58680519300698
C           4.57485903564769    7.02151056624666   -6.63607972784003
C           3.83772611819886    8.18327101008864   -6.77917832837652
C           4.11650295039503    9.13895755953641   -7.76788243028073
C           5.16221074067086    8.99174371309774   -8.63940579137912
C           5.97137179344251    7.85329986993383   -8.50256242819358
N           7.06874362589369    7.55790885700014   -9.20216755818156
S           7.68709422707915    6.18946859342728   -8.64513208646100
N           6.60030135094217    5.88594025302666   -7.49892597567807
C           5.68430723914698    6.85557132752030   -7.50226260757012
C           3.77738709850267    6.41401187531331   -4.31689540350495
C           3.47070760244009    7.52321957577342   -3.44513705250036
O           3.48385380960116    8.72607011855610   -3.60659289178261
N           3.08219908568364    6.90923541611238   -2.23392041448102
C           2.70583473593724    7.69566985928210   -1.09182322945523
N           3.26572680411590    3.40724354287255   -1.30243639886331
H           5.93529660720374    0.72118746215137   -2.33644246061614
H           5.67686837148539    2.24718088158504   -1.44670286765145
H           4.62308487997949    1.83701428274865   -2.81263755797701
H           3.77845277607520   -3.37195103575275   -1.30634691483021
H           4.58283243707818   -5.66143778597857   -1.49866444735849
H           4.71869095273668   -7.14471497712684    0.49219182392874
H           1.40122493832718   -2.69021151994354    3.23667445313030
H           0.53430588494125   -3.17252752749506    1.76018081975291
H           0.11986836781106   -1.64045989925442    2.57676867752847
H           1.07450978542603    4.53786697722621    1.49046931567097
H           4.22612211283691    2.91534062835026   -6.62446092809462
H           5.57793023104443    3.96815254794568   -7.11597923220531
H           3.93319243505618    4.30729850586018   -7.70222388908002
H           3.01186978457341    8.35700362587210   -6.10802369302363
H           3.48565263766700   10.01228809310254   -7.82987414869399
H           5.39046984392793    9.72012486505284   -9.40014189303506
H           2.84973260176631    8.74009855520693   -1.37060630347008
H           3.32954967118284    7.45269736363806   -0.23134250306110
H           1.66351258324636    7.52049236798997   -0.82726097762255
