56
 SCF done       -110.863840631533          0.000553587043
C           2.16631797456369    0.47416175678297    2.71292440504571
C           0.81018446854413    0.52769132133968    2.66272597916997
C          -0.02291240447603   -0.18482704466303    1.65572564225110
O           0.20801953465267   -1.29347325090059    1.24517620694899
O          -1.10145656658429    0.53136339686734    1.32819001501248
C          -2.01975404257234   -0.08223068283736    0.43746735983183
C           0.09117036920582    1.18605852468164    3.67683346724572
N          -0.49934217109163    1.72080269995714    4.50316296107179
C           3.02814134611081   -0.01714363770473    1.69970668535115
C           2.84352503314466   -0.08436883307366    0.31691806468621
O           1.71860436961573    0.39613923247248   -0.24410456302583
C           1.61956925063646    0.34847717945212   -1.65067775107792
C           3.96172863094847   -0.59764975119935   -0.35807744908903
C           5.00769749572485   -0.92211395098791    0.47700205237709
S           4.62316197863676   -0.56444684558317    2.12958050591945
C           6.27455522919559   -1.47757228183713    0.10967564091176
C           7.24120280054774   -1.81959373166388    1.05207517223881
N           8.42684763771411   -2.33379299932092    0.78523989379487
C           8.82548904692750   -2.57314882236809   -0.45929788468936
C           7.94385014888223   -2.27821946978090   -1.53553884214325
C           6.64559998066314   -1.72376288768601   -1.23781224102484
N           5.93630262815878   -1.50702511200736   -2.34423637281345
S           6.81284275902867   -1.95740013634157   -3.61915654817781
N           8.12400642986681   -2.44433630614795   -2.84066938045064
C          10.13582128150703   -3.12776495677231   -0.54844417552118
C          10.96026191879073   -3.50594039069754   -1.61083018845845
O          10.56852627783272   -3.35529923940864   -2.88528565507268
C          11.45766401019821   -3.76228657154855   -3.90065290800754
C          12.18394534158126   -4.02773419911323   -1.16404590661350
C          12.30980120833988   -4.05342976378164    0.21325916375974
S          10.89467846052787   -3.41471395551961    0.98215150517316
C          13.45263006758218   -4.53825408095500    0.90865185568282
C          13.63870179327280   -4.56432666253949    2.24742705836688
C          12.64349383551886   -4.04456807820007    3.24993176375767
O          12.75648778363550   -2.99981148863291    3.82787404982210
O          11.65352581377890   -4.91907347003647    3.41655752093687
C          10.61255577686726   -4.54256674556281    4.31121018411768
C          14.82770169548929   -5.06303014914568    2.80590713392494
N          15.78935980920483   -5.48393815120060    3.27016774025711
H           2.65598874489589    0.85221588502158    3.60360220757456
H          -2.62035386813501   -0.82273719518172    0.97035846320166
H          -1.48462468657116   -0.57903241083219   -0.37449480762534
H          -2.65503181037816    0.71282441730461    0.05514781551923
H           1.62923144054356   -0.68406890841929   -2.01120378870586
H           2.42897136397538    0.91065947720111   -2.12595701118591
H           0.66473818918867    0.81149951299907   -1.89429224958571
H           4.03028228508778   -0.74468593859833   -1.41969498295834
H           7.03625229784582   -1.66584249969799    2.10382608488160
H          12.39158725941301   -3.19271256210189   -3.86681478119019
H          10.94229530829741   -3.55761179737373   -4.83693998326925
H          11.67961730844205   -4.83175222870246   -3.83340587587940
H          12.96477776763884   -4.37924394891009   -1.81429687396206
H          14.25238011391281   -4.91170495779374    0.27901162723580
H          10.11863766881631   -5.46278427471544    4.61268685240183
H           9.91101263082926   -3.88376797240559    3.79524695026153
H          11.02812098400200   -4.02254506218923    5.17590819179908
