77
 SCF done       -167.568467007257          0.000349039956
C           1.55854159455872   -1.23265998755426   -2.57742310819090
C           0.35734211725852   -1.28920175419200   -1.95693459339832
C           0.13710200089198   -0.99411882197847   -0.49656375354160
O           0.56116714568983   -1.68973526139152    0.38735343051796
O          -0.59866231828268    0.09770662199461   -0.33498069732778
C          -0.89316140213952    0.48067795865931    1.00828444528563
C          -0.79425216049642   -1.71979290138133   -2.63833812026570
N          -1.74669033294516   -2.06325415533134   -3.17848502156604
C           2.76693111876716   -0.74641109716204   -2.00528789008401
C           2.95952700251092   -0.02251931763210   -0.84125401828202
C           4.30026206711305    0.27669320099436   -0.62536688551010
C           5.14686555822435   -0.21893204751942   -1.63841038360430
S           4.27993071351346   -1.04000395062779   -2.85384828208257
C           6.48188963899707    0.13289036954613   -1.32639168413866
C           6.47672453479965    0.85001874465676   -0.10972044778926
C           5.10712455439714    0.96800182456946    0.36481693704529
C           4.66465563755007    1.60179399118109    1.48899546373992
C           5.54416919126126    2.24393344703001    2.38679239234672
N           6.25407875945973    2.76849129017139    3.11824296933180
C           3.29325353371055    1.66812866486998    1.81237256735144
N           2.17584724379633    1.73496206586203    2.06222889550911
C           7.74472906890417    1.25009777953370    0.28402834576880
C           8.72051714077825    0.84988825263514   -0.62292096587408
S           8.05119239154705   -0.03996046309099   -1.98206284309227
C          10.11259473009131    1.10482571481821   -0.54150193080331
C          10.99358738648208    0.66800205245018   -1.55681784842142
C          12.40724315553740    0.93786830146128   -1.52037181435450
N          13.18689001183334    0.50413760135035   -2.51620882976823
C          12.66501187352469   -0.16339049147999   -3.51682575942390
C          11.25835017114679   -0.43182265837737   -3.55317510466162
N          10.47865580812645   -0.01285211935810   -2.58575965379053
C          10.69099478855197   -1.15148472930452   -4.63385417965809
N          10.25633872032635   -1.73322012662062   -5.51926165094919
C          13.50972322698021   -0.61514691327542   -4.56093125918871
N          14.16971644169917   -0.99025982372267   -5.41818293880789
C          13.01410739420331    1.65460672445271   -0.46407147098484
C          12.13879959453133    2.07680020513086    0.56485358091940
C          10.71806022444624    1.80935076501999    0.52604354400395
N          10.10022672174931    2.30712651905535    1.59802368654297
S          11.16965530054073    3.02687171326983    2.54897348130519
N          12.47561966498364    2.75449291669391    1.66285105892470
C          14.40544644751982    1.92649164077722   -0.46949045198728
C          15.12364980878392    2.61410210875383    0.50381403344340
C          16.46718238844389    2.71954067922608    0.17864503853079
C          16.78018096436596    2.10942293868997   -1.05588666676663
S          15.41585596170745    1.40082050705946   -1.80632650208423
C          18.16179723511938    2.28276753000809   -1.29635268082673
C          18.72813553158983    2.99563977177850   -0.21483991224799
C          17.67579000003471    3.30569607251940    0.73856721623597
C          17.78324417587616    4.02120445724052    1.89392859354376
C          18.99337313004618    4.61156514621228    2.32007238227458
N          19.95553152983240    5.12439047133821    2.67332128532530
C          16.67312325106862    4.25031628385540    2.73581801327568
N          15.77570228764414    4.44073801927198    3.42339663052750
C          20.09605044583648    3.19550995822914   -0.34733627728784
C          20.59160915887785    2.65896925778754   -1.52709543476701
S          19.31701258397457    1.88783956790114   -2.47941150004145
C          21.88689685123510    2.65631161073944   -2.09996068557529
C          23.07928867926176    3.08988997666705   -1.60299018812055
C          23.37744285873680    3.56851158098969   -0.22829775448094
O          22.73958792044078    3.30658247220431    0.76137840557511
O          24.49027669568819    4.30487989232110   -0.22082926994066
C          24.91272398033973    4.78605479159970    1.04720670619819
C          24.20038760440374    3.04048647251356   -2.46071356291830
N          25.10281516611828    2.98914785617488   -3.16668531949143
H           1.62143206537457   -1.57577170773412   -3.60314687643761
H          -1.18737479879379   -0.39304266154503    1.59160307483627
H          -1.70784992031484    1.19675256349280    0.94473538332975
H          -0.01548087117424    0.94081953268305    1.46773526244429
H           2.16209340284400    0.28736322657100   -0.19456316787514
H           7.98648224638914    1.80462566321765    1.17207849873044
H          14.65355156521287    3.00226207694530    1.38850945095932
H          20.71728196759006    3.68630592405152    0.37813519796726
H          21.91857820690827    2.26479021055196   -3.11237126471442
H          25.14393025200184    3.94987953778436    1.71020845964768
H          24.12634915767994    5.39007897061144    1.50489240032456
H          25.80014205476441    5.38453749417394    0.86107181936868
