77
 SCF done       -172.960063053899          0.000278059806
C          -5.00076288664380  -11.19043218708724    7.04310612005026
C          -3.89964716244863  -10.63491914160483    6.45231098460453
C          -3.88630560073648  -10.33885683053787    5.08282333929371
F          -2.74824516078238   -9.79400023304247    4.60138715297952
C          -4.94172394293931  -10.56564141689815    4.21156533518151
C          -6.09339151097911  -11.14297968672614    4.82019038675798
C          -6.11379213068809  -11.45074831396513    6.22794370702849
N          -7.27656062598092  -11.98554680222281    6.60457149307552
S          -8.23933664012768  -12.09024308826657    5.32847913714930
N          -7.24329802161908  -11.46789659607215    4.23273523567406
C          -4.90201968846356  -10.26211642335506    2.80847186550024
C          -5.92438028938844  -10.46096648264083    1.89792640770305
C          -5.55886173676416  -10.07903141643039    0.60962375759331
C          -4.24323421560462   -9.58189056344104    0.53791522205170
S          -3.46670486986508   -9.58333401723405    2.05331459688054
C          -3.95775019390425   -9.24330705888596   -0.80812087243092
C          -5.09931718657293   -9.53143315969351   -1.58819209955646
C          -6.14221745968975  -10.05664024448806   -0.71966129668235
C          -7.39972917319162  -10.44393412247247   -1.07946469945218
C          -8.33593553307181  -10.93614564231599   -0.14559502085989
N          -9.10701944668542  -11.33624803767752    0.60275279661198
C          -7.84870687445259  -10.37477174355872   -2.41520360761338
N          -8.21381018860372  -10.31874979369604   -3.50076843788422
C          -4.91353421089748   -9.25673881387501   -2.93596481069315
C          -3.63891822548895   -8.76130492433892   -3.18416488209765
S          -2.65930790111538   -8.62432760884211   -1.72886017732798
C          -3.06997485625352   -8.40313339691000   -4.41616240087504
C          -1.76964069630205   -7.91674961553580   -4.59233021022621
C          -1.44121667539403   -7.67544991381437   -5.96782540478880
N          -0.24258855065463   -7.21777129964429   -6.32500446508909
C           0.62134597643933   -6.99392893550992   -5.35648461215065
C           1.95457651972513   -6.48008599468964   -5.75210086844706
O           2.25882847940389   -6.27183751557324   -6.90898229101737
C           2.88491951117752   -6.24066386967903   -4.63682128115848
C           2.57885637394799   -6.46453951234963   -3.35424649195830
C           1.27466937723434   -6.97684332403264   -2.90164579218532
O           1.02507123745537   -7.17180133519295   -1.72951744982788
C           0.29321570309078   -7.23417430200622   -3.98216093558370
N          -0.88821667001811   -7.69132605006570   -3.62001961928675
C          -2.48781182709530   -7.97573866323956   -6.84562511518015
S          -3.87191010266819   -8.54136071080854   -5.95507330255970
C          -2.41605081717530   -7.87119754279064   -8.24391303764430
C          -3.39857223515978   -8.15598715262181   -9.18464336588536
C          -2.93287673133188   -7.96895337792795  -10.47933796695774
C          -1.58873158668139   -7.54036002795719  -10.51935302490007
S          -0.89867734671792   -7.35434643033233   -8.96786992005153
C          -1.20683430623509   -7.41195626292585  -11.87736011048224
C          -2.30034940964482   -7.75467896348191  -12.69382713971282
C          -3.42308149452742   -8.10819967468302  -11.84336294939177
C          -4.67143135758669   -8.49142524795611  -12.23702271178796
C          -5.03694972199091   -8.59770472128025  -13.59592090638660
N          -5.34815767724061   -8.69120891917366  -14.69542572896847
C          -5.68441329571135   -8.80707966386730  -11.30690907560306
N          -6.50906153211178   -9.06205907274410  -10.55213596963580
C          -2.00727678697945   -7.67725128747953  -14.05549707656053
C          -0.70427654130750   -7.28283728209421  -14.28454565461234
S           0.17295614087039   -6.99511843003912  -12.78614871983863
C          -0.04965572761336   -7.11378358051464  -15.55057581266076
C           1.27441255906970   -6.72500987033357  -15.64644678776689
C           1.90676264019885   -6.57308102246422  -16.88655208742970
F           3.19783656581600   -6.19288456976648  -16.87325486178732
C           1.29061783120250   -6.78910069996272  -18.08975342063882
C          -0.05401121756291   -7.18339921232733  -18.03658399784009
C          -0.73452708546983   -7.34865064419251  -16.77615827859105
N          -1.99940458743386   -7.72665699486878  -16.94842869939427
S          -2.30018862322466   -7.85951513600984  -18.52042146156523
N          -0.85202418783462   -7.44805111984013  -19.07232272464921
H          -5.03367139662367  -11.42774602088359    8.09275167251341
H          -3.01117348026260  -10.40979872912239    7.02090471880111
H          -6.87526540864641  -10.86914515861318    2.18615374373135
H          -5.64081083335185   -9.40276490101494   -3.71453128352683
H           3.85668286251029   -5.86318618681315   -4.92544599352308
H           3.29352236830412   -6.27502508137224   -2.56466921613321
H          -4.38553766286857   -8.48405791058797   -8.91141410406433
H          -2.68693492725958   -7.89554028073899  -14.85862549478147
H           1.85222109439041   -6.53109175690661  -14.75541350822957
H           1.80224099285647   -6.66608827784686  -19.02851043727548
