77
 SCF done       -175.474346043620          0.000783115688
C          -3.86342468778967   -9.47885229086487    6.31846858166321
C          -2.71632594947154   -9.44860973836926    5.57439712056114
C          -2.75630037189186   -9.20708852385646    4.19495227460204
F          -1.56709381775209   -9.20127368459845    3.55577493607629
C          -3.91266788879659   -8.98125401055656    3.46178552926633
C          -5.11183834351538   -9.00853740102356    4.23083285677016
C          -5.07797011324883   -9.25749266345264    5.64985759970124
N          -6.29912636741948   -9.24623760387352    6.18700404170312
S          -7.37267645222491   -8.95455720821355    5.03462485669820
N          -6.35725275297343   -8.82708394484523    3.79638462044954
C          -3.92974250954475   -8.75066413521115    2.04500496284607
C          -5.04945376790984   -8.51867307178118    1.26442768543776
C          -4.72642533375152   -8.36214820079877   -0.08014156945337
C          -3.34294382498855   -8.47430566230891   -0.32742160164966
S          -2.45138114775706   -8.76466095029657    1.09435735171476
C          -3.11672613014389   -8.34135737230826   -1.71713048939486
C          -4.36303189989706   -8.14238791593911   -2.35153091825623
C          -5.41078934357042   -8.14078137251468   -1.34211535588498
C          -6.75045037850779   -7.97852736143579   -1.54154622716458
C          -7.30067562157781   -7.77689600747190   -2.82518864125466
N          -7.75796758196885   -7.61815817996140   -3.86463010375003
C          -7.67941645584421   -8.00386429999500   -0.47965633436504
N          -8.44486767349835   -8.02367106151817    0.37391782140646
C          -4.25497604963460   -8.04260034040105   -3.72991336843852
C          -2.93715306658014   -8.16669972724993   -4.15892508085763
S          -1.81455165166838   -8.38757200772745   -2.82332551355166
C          -2.47664579584803   -8.19310997557864   -5.49776283765790
C          -1.10503561714164   -8.36621503935607   -5.79352129562399
C          -0.62211552042061   -8.52707779678162   -7.14110468005104
N           0.68511394408553   -8.70687505429445   -7.35587523223274
C           1.52018793112745   -8.72864042051121   -6.34435857335488
C           1.04006419070322   -8.56825478500367   -5.00491019910577
N          -0.24063541829163   -8.39816808862548   -4.77503426287459
C           1.94249135533912   -8.58517713299820   -3.91352223654102
N           2.69612978741081   -8.60590084372760   -3.05121495804377
C           2.90294827917705   -8.90646089619110   -6.59454959015343
N           4.02567096408321   -9.05299151522873   -6.76748656846284
C          -1.48518967131152   -8.52296856754079   -8.25965612016035
C          -2.84813093914878   -8.26689306998228   -7.97430361083157
C          -3.33353873447599   -8.10495110300781   -6.62181442438316
N          -4.64879300147260   -7.89068995499187   -6.59904970265614
S          -5.21838864386958   -7.88557866581529   -8.09759298356470
N          -3.83639815897584   -8.16167064380068   -8.86233844899949
C          -0.99746812010809   -8.81061347681403   -9.55861731359211
C          -1.73870669245638   -8.88185505975083  -10.73349566288937
C          -0.96144670146895   -9.27100009050419  -11.81409271125001
C           0.38745380167688   -9.49572536295901  -11.46478461816154
S           0.69549345025406   -9.21194632361715   -9.80691441120694
C           1.07642666591473   -9.92629762206161  -12.62257000362123
C           0.17225981040173   -9.97643432470630  -13.70149782155081
C          -1.13657357728160   -9.55813890854326  -13.23021368150395
C          -2.28829239820946   -9.46566734269248  -13.95500228259900
C          -3.50908075318553   -9.05610012063220  -13.37753892121611
N          -4.50701493180131   -8.72543627341785  -12.91980604023561
C          -2.34153337037990   -9.77672672613495  -15.33051074237905
N          -2.39833759679577  -10.02688143177301  -16.44805846692013
C           0.76025870038081  -10.42877982975210  -14.88185314592469
C           2.09909894803625  -10.72525217438538  -14.71557857673054
S           2.64286116534853  -10.42976082098065  -13.06826819845750
C           3.01180880619109  -11.23612017961726  -15.69769327404631
C           4.33914253827182  -11.49269355757672  -15.40334766808752
C           5.21843989996569  -12.00465198810502  -16.36520158173782
F           6.48925293475113  -12.22141144222977  -15.97977647530137
C           4.85696133060550  -12.29296281817869  -17.65391141272141
C           3.51919466745218  -12.04579489188968  -17.99369136578859
C           2.58845935970575  -11.51764164873104  -17.02736653333287
N           1.37504245110024  -11.35952786606225  -17.55168457544982
S           1.40112494489945  -11.82275166967956  -19.08937549233131
N           2.94389207335480  -12.24930765393741  -19.17997874186806
H          -3.85762461403441   -9.66462639986834    7.37893325503689
H          -1.75005809727466   -9.61080179810158    6.02535462583242
H          -6.03827769086598   -8.47805528102873    1.68227614959872
H          -5.06567060113880   -7.89922621547936   -4.42034844109903
H          -2.79067145247751   -8.66429944665374  -10.75521378611109
H           0.26202768658786  -10.55219170650322  -15.82590873924086
H           4.72563994634641  -11.30211950488085  -14.41351084887826
H           5.55412164723899  -12.68840175281754  -18.37207180615195
