97
 SCF done       -173.685552691480          0.000610782354
C          -1.34323002393236   -1.31852180233456   -1.01767262836291
C          -2.42020046684654   -0.41517963393545   -0.91715087302020
C          -2.23611473702639    0.87689843486067   -1.39226524557820
C          -1.02139338578128    1.27487078001989   -1.95648887154681
C           0.04055471528442    0.35036106720337   -2.04626851384613
C          -0.14181265327879   -0.94985073175803   -1.56665294563507
N           1.22196137149397    0.74782295720960   -2.60252424545483
C           1.51111743787209    2.00029668100051   -3.11260959773796
O           2.60217554895910    2.23220249585547   -3.58616666350948
C           0.39200848542275    2.94555507344510   -3.00889418096962
C          -0.79961450786138    2.58807645110890   -2.45920998361148
C           0.58716733988812    4.25416965211151   -3.50278142687329
N           0.71263819716687    5.32384309032902   -3.89452891691925
C          -3.67642752894518   -0.83820442565022   -0.34640157921772
C          -4.80943969916618   -0.09191012120542   -0.10434229196563
C          -5.86517770651875   -0.82651978156312    0.43703337071189
C          -5.53374441148792   -2.16196743581165    0.61313861472016
S          -3.92198939172707   -2.50598271768124    0.11914510565019
C          -6.52609934924183   -3.03682359890038    1.12329742581352
C          -7.77344772288683   -2.49057644925976    1.40844856110163
Ge         -7.73244889481226   -0.56232395783839    1.01680951172995
C          -7.89762018983981    0.58187244633715    2.62982561782564
C          -8.94632396048471   -0.00896441577560   -0.45140535228473
C          -8.66935603712210   -3.44937799240678    1.86688905408415
C          -8.12362359797597   -4.71927075010442    1.94439969295638
S          -6.45679387252504   -4.72747468564366    1.43563557440463
C          -8.78471691719556   -5.91020222893220    2.37296124094986
C          -8.14157028040556   -7.14808777716511    2.45900775857888
O          -6.84176468095967   -7.13726692061634    2.06596276347433
C          -5.88421825288319   -8.01131884737074    2.62614415624839
C          -8.81634881814779   -8.34550802515231    2.85032830152810
O          -8.08870909053703   -9.50502418953859    2.73305778432747
C          -8.67334478698319  -10.57018715746766    2.00570382993028
C         -10.13944952232906   -8.34214686139743    3.27910065835203
C         -10.81854574592661   -7.10370838997952    3.16735610152294
C         -10.16173024555690   -5.90451859184617    2.71610537984109
N         -11.06140498103941   -4.94192471494918    2.73508084501813
O         -12.19738511482137   -5.49574880532867    3.16869665045503
N         -12.06947515715626   -6.79460742705433    3.43607234577086
C         -10.82363350460776   -9.47691846859573    3.83832687509344
C         -10.29574093647420  -10.48313720752754    4.62072139719406
C         -11.24524173071805  -11.41710404909649    5.03434369881981
C         -12.51189169763476  -11.11231355473342    4.55499848869449
S         -12.54239804173553   -9.66434884803168    3.62312056080012
C         -13.56797588987750  -12.00361000955653    4.88276453823052
C         -13.26728412060278  -13.11230633355585    5.65867625259869
Ge        -11.34680672592637  -13.07203194152641    6.09633964617773
C         -10.31484042744952  -14.57951006377145    5.31795035048790
C         -10.97559891381680  -12.80252922945660    8.02634441690146
C         -14.38971146788723  -13.90873474910020    5.89153993061331
C         -15.54189028966463  -13.43073653132806    5.30651712761423
S         -15.22860160568619  -11.94372631992888    4.44251192576563
C         -16.86946205523715  -13.99817212988813    5.32972349154795
C         -17.92828706262002  -13.36194300573966    4.65158322002668
C         -19.19771618039418  -13.88109113542491    4.64875040870192
C         -19.47057003044424  -15.07086510538271    5.32997605812396
C         -18.42845841593708  -15.72621687768872    6.01933444416777
C         -17.14315693890387  -15.17836243934798    6.00837955393021
C         -18.74373510046886  -16.93485684891372    6.70209934016777
C         -20.00396903415481  -17.44607952897423    6.69405738351357
C         -21.10434403713362  -16.78123320284076    5.98391927885931
O         -22.25231932922829  -17.16387832860851    5.92539877222146
N         -20.72175116241467  -15.61567375082442    5.34466229748666
C         -20.29157301908930  -18.64756466306982    7.37847351233832
N         -20.49093562917409  -19.62471797528744    7.94333109445743
H          -1.47370914956883   -2.32591316517079   -0.65164453190139
H          -3.03537075137432    1.59893125216678   -1.33991755818890
H           0.66957627750897   -1.65951681651257   -1.63393479695028
H           1.97743030715676    0.07416486688050   -2.66214279716362
H          -1.60295141351722    3.30991794463422   -2.39939183550554
H          -4.87930935466568    0.96170680391779   -0.31001088411094
H          -7.20360797005123    0.25541852826710    3.39783516581175
H          -8.90691166411089    0.52221741644304    3.02474760956176
H          -7.68345769492018    1.61713364005721    2.38287042198463
H          -8.80633266183240   -0.64638973397213   -1.31855835315308
H          -8.74943826693460    1.01950860342162   -0.73787237529313
H          -9.97903201066152   -0.08576232148157   -0.12622965199803
H          -9.69116184275966   -3.25322963928193    2.13663799529718
H          -4.93372478237092   -7.48093380737917    2.55284095501486
H          -5.82286782447287   -8.94562579184747    2.06529639035260
H          -6.10324290837018   -8.23212912100953    3.67166773164821
H          -9.15196427964989  -11.29458366636682    2.67005082897620
H          -7.85599840535724  -11.05692898002622    1.47200252856389
H          -9.41045612560305  -10.20538431890001    1.28768238274349
H          -9.25870909520310  -10.50969325123194    4.90976100749056
H         -10.55963590482250  -14.70723920127894    4.26823704608413
H         -10.54478433507683  -15.50114481210297    5.84332491319373
H          -9.24967300381455  -14.38939696515650    5.40772192040189
H         -11.55714427028667  -11.97002681969480    8.40930343012104
H          -9.92182617187425  -12.59104347874696    8.17899249532243
H         -11.23311457518937  -13.69543759254350    8.58739294067702
H         -14.35073711272249  -14.81262727113487    6.47330575445776
H         -17.72960687757290  -12.44254537528016    4.12140737492373
H         -19.99356359336856  -13.37637089328477    4.12119767946785
H         -16.36323414104273  -15.69750091085836    6.54240691996785
H         -17.95686293335548  -17.45076778197616    7.23567612608031
H         -21.46278548136300  -15.13573573511627    4.84592207313185
