118
 SCF done       -239.632651695389          0.000473105851
C           8.89094224430873    7.04511438251118   -3.14702697448750
C           8.51177916779173    5.76471264043445   -2.49876534913949
S           8.37554779280899    5.63984110977502   -0.77768464657019
C           7.95201912951425    3.95105037194371   -0.86695828842436
C           7.69057599447431    3.18069040374794    0.33183363540382
C           8.17361044603192    1.86417136438293    0.47680078525229
C           8.99617083891527    1.13562393207192   -0.41681302533869
C           9.30699863876328   -0.11829052600663    0.02330072563075
C          10.07009159541651   -1.13357729252192   -0.66895919272435
C          10.20200991661055   -1.15277934640336   -2.06421563028661
F           9.62039835592071   -0.20004610537977   -2.80723633618904
C          10.89537760973793   -2.14780825468049   -2.73053399533210
F          10.95981449687947   -2.06951033819452   -4.06694510868246
C          11.52209649388641   -3.20989983061624   -2.06333245619001
C          12.20887610515760   -4.27335888869206   -2.76270276409835
C          13.12408899577118   -5.14981293321455   -2.25575888578489
C          13.55542741540854   -6.12729466112834   -3.18485283263675
C          14.49970392720539   -7.15399180598090   -2.98360285219918
C          15.15410061126915   -7.38584593766800   -1.71223574691434
C          16.45154013260707   -7.75774818421252   -1.49933441806745
C          16.74473481597955   -7.95434786201871   -0.13334841455161
Cl         18.31259159797794   -8.41223773368304    0.41269066834335
C          15.68725896705528   -7.75539699896622    0.70650977919287
C          15.63867805263641   -7.86523432481219    2.18597396152983
S          14.28821720680334   -7.29835870078433   -0.20159648610553
C          14.76237530852162   -7.96971872478179   -4.07934870575066
S          15.81399919361403   -9.35463451268369   -4.06808277854102
C          15.40156474265261   -9.73840883536885   -5.72746202600675
C          15.96865614004907  -10.90887614298244   -6.36378893479687
C          16.79657366341149  -11.78034603390156   -5.63162524687379
C          17.33529035372682  -12.90650415916173   -6.20041507058408
C          17.06584687463868  -13.21338655789297   -7.53741113819376
N          17.57949567177002  -14.32840197337987   -8.13070653785880
C          17.37963299429140  -14.73089760527563   -9.44019429257667
O          17.89156007576709  -15.74713134985179   -9.85303556317515
C          16.52048267328596  -13.81837558706882  -10.20719818361383
C          16.25570761240716  -14.14446563587456  -11.55613802926605
N          16.02119623986779  -14.38314486970259  -12.65199710140656
C          15.99113239114156  -12.69620901088746   -9.65183964972023
C          16.24302184771995  -12.35102532127883   -8.29318399976032
C          15.70833066617410  -11.20814555586329   -7.69334468437578
C          14.52729912009859   -8.83276268236152   -6.24720924377661
C          14.14478595924980   -7.80898720221381   -5.34293518997889
C          13.22240052144347   -6.76558657323688   -5.55193688718035
C          12.60405567228272   -6.51306976109953   -6.83711918820079
C          11.33272397319799   -6.08471938830943   -7.09266206817801
C          11.09162632172511   -5.87155379866791   -8.46722624953523
Cl          9.56417792156877   -5.34441780072503   -9.06067388380380
C          12.16310685571379   -6.11785991867348   -9.27531779176576
C          12.26910308175838   -5.98153717705836  -10.74964336518631
S          13.51088057093666   -6.63862949571248   -8.32319626011741
C          12.94135677246605   -5.95988008925611   -4.44991951468550
S          11.85465974150510   -4.60543211149037   -4.44671121042671
C          11.39689862844397   -3.18516567585957   -0.66670046192422
F          11.94018107357291   -4.15669737776816    0.08037208319698
C          10.69952938239480   -2.19234484994935   -0.00137355036540
F          10.64449912407132   -2.26380372121095    1.33600860310314
S           8.61066994466691   -0.45348765830370    1.59580455789044
C           7.87793725625954    1.11958070268777    1.64422249068525
C           7.13689671219435    1.62891669979317    2.70610311602301
C           6.90041555453959    0.87142019841111    3.91839655835689
C           6.96196449194197    1.31720345417849    5.20783490182730
C           6.67764402487215    0.30311811232474    6.14767098518432
Cl          6.69140775588601    0.59440691063540    7.84645541529465
C           6.39663852947748   -0.91361151087620    5.59729577499912
C           6.04403238916516   -2.18365041529533    6.28005699174128
S           6.48717830009155   -0.82008502175303    3.87129319392126
C           6.63997744846525    2.93706204572307    2.55439761913148
C           5.78251948544385    3.65070918922819    3.43023832781639
C           5.44286069971567    4.89268833141828    2.98604302259950
C           4.58659966551773    5.87238713670087    3.62184926725052
C           4.35203080063822    7.11424899447861    3.00245009632746
C           3.54024639675119    8.06035165054148    3.57510724378209
C           2.92236588289830    7.80365169747262    4.80263446285845
N           2.10717676342742    8.72096985202979    5.39680377629377
C           1.44710745532783    8.57589940618123    6.60522578147021
O           0.74765318162152    9.46735701510867    7.03101891698306
C           1.69501550699326    7.28148731758776    7.25495842627864
C           1.06386161696892    7.03954501186683    8.49567831613775
N           0.56155325402303    6.81637430634824    9.50089409449797
C           2.50060339401173    6.34107896746239    6.69420857606789
C           3.14551947547555    6.56674692415195    5.44440206305165
C           3.97680079670767    5.61905507245660    4.84220314668218
S           6.18239388838805    5.24722007257647    1.43634579743881
C           6.93872383043345    3.68198732036046    1.38832889863824
C           7.91927865100268    3.53087637200088   -2.16575673485237
C           8.23299803173255    4.56130211103044   -3.07886767961348
Cl          8.25636139587060    4.30250240311964   -4.78138996725380
H           8.22878333421701    7.84823819925472   -2.82688678244488
H           8.82830961974237    6.94051406410186   -4.22722915813272
H           9.91000848727728    7.32396103362343   -2.87909531118851
H           9.37036329136830    1.55389689149388   -1.33107994004140
H          13.50394105267053   -5.09411152774957   -1.25453998314155
H          17.18836468742860   -7.85323508632033   -2.27493207453164
H          16.55107256318771   -8.33108068470787    2.55008845407549
H          14.78227048147256   -8.45994957781727    2.49921438054345
H          15.54454880941535   -6.87822824738052    2.63973349477258
H          17.00695036818730  -11.55327970333436   -4.59723094243474
H          17.96697412557517  -13.56332050033807   -5.62117998603072
H          18.16943534317541  -14.94118131663157   -7.57848613579899
H          15.36243633878347  -12.04588534038913  -10.24471353766923
H          15.08659783937428  -10.56026143596759   -8.29033884476310
H          14.13420482612916   -8.89806279080658   -7.24356832355684
H          10.57471741952566   -5.95697947420649   -6.34289124571338
H          11.27565227228108   -5.88168205218925  -11.18004133708432
H          12.76298006444138   -6.84936636175709  -11.18304038065032
H          12.85168077208737   -5.09765085517606  -11.01175999848662
H           7.24624251734822    2.31496000664718    5.48728447056666
H           6.27617662658866   -2.10842607948738    7.33972409291564
H           6.59794444507473   -3.01548733366120    5.84921991420393
H           4.97973146924115   -2.39552940820905    6.17192925082819
H           5.41514869516768    3.22338536501828    4.34392450210349
H           4.82526247306622    7.32081599282828    2.05424597390756
H           3.37216193473083    9.00698268981225    3.08354615463960
H           1.95276817961546    9.60638299210172    4.92709081187977
H           2.66176611910448    5.39833873784852    7.19916863318355
H           4.13192616395865    4.68064752944190    5.35029228790019
H           7.64304538084093    2.53963662398347   -2.47429590765106
