60
 SCF done       -135.106426881074          0.000810211802
C           0.54910427068781   -0.22232146923826   -2.55270454764224
N          -0.67758296608284   -0.14789099275578   -2.12676524044349
C          -1.46988372223025    0.51960001773576   -2.96458219706539
C          -0.86030585871560    0.99952744315462   -4.10490699690537
S           0.82138204251706    0.57114815110172   -4.10232506082459
C          -1.44414251964438    1.72541908740144   -5.14330811749691
N          -1.92910877373322    2.32222590494665   -5.99500386643400
C           1.58951656353734   -0.88081363874208   -1.84607435629202
C           1.45964083441257   -1.52566590620210   -0.62917815617163
C           2.67091243268899   -2.07126927821619   -0.20642123203735
C           3.72219731870111   -1.83613710017181   -1.11126928903533
S           3.22260642128137   -0.94681636255883   -2.47704270369343
C           4.90661524393845   -2.42649471325048   -0.59912076648186
C           4.60178709807918   -3.03558446781207    0.63230847614344
C           3.18946015169010   -2.83294403932377    0.91990563532413
C           2.50074213253798   -3.26659127498166    2.01299792883809
C           1.12323852192988   -3.01208564964492    2.18954703153880
N           0.00544916506754   -2.81153490361566    2.34365433461414
C           3.12069666155106   -4.00280791610345    3.04597669254521
N           3.62045257556672   -4.60065455817376    3.88630658014457
C           5.70718787693854   -3.64896544486992    1.21862764794261
C           6.84032813852207   -3.50624921172708    0.43815879715116
S           6.54723078943673   -2.60673405312080   -1.03553054861875
C           8.14311107184551   -3.99119608037384    0.69719040512899
N           9.15392510453791   -3.80987555366076   -0.10261269214272
C          10.25315238014377   -4.37541793217838    0.39067937945237
C          10.12111173875353   -5.03281834165903    1.62801238779899
S           8.49889170354886   -4.91418125373379    2.18075016519180
N          11.21927316433442   -5.59995630621764    2.12130752260781
C          12.23094678699082   -5.42147424056487    1.32281578900216
S          11.87388046995886   -4.49576873174662   -0.16118477645365
C          13.53008838484417   -5.91760792225562    1.58909584910197
C          13.91139315764592   -6.64500614475531    2.70464577024598
C          15.26205608422933   -6.98272694628812    2.65873030095540
C          15.90475757539756   -6.50720687636150    1.50096039212166
S          14.84984851909784   -5.64667163058590    0.47215619465774
C          17.26624882242518   -6.90043781196531    1.54609540133513
C          17.48698035470209   -7.62537453984326    2.73154356085333
C          16.23543381153336   -7.70049050507379    3.47030489326050
C          16.01953495598995   -8.31235551233731    4.66836864698261
C          14.75443354237720   -8.31979248303684    5.29584126616025
N          13.73306450948902   -8.33267985785646    5.81528695233155
C          17.04583104284832   -8.98315728665359    5.36904907470246
N          17.87092732389514   -9.53025218407503    5.94629706127599
C          18.80615718302333   -8.05684114276751    2.86393821729612
C          19.58120063283015   -7.66264398646267    1.78816499772365
S          18.67551947318801   -6.74966470905751    0.59845226099548
C          20.96281082912745   -7.93772485089230    1.61303854514433
N          21.67799873508931   -8.61289189249920    2.46408964498365
C          22.94737134473731   -8.73800774691286    2.07900885464597
C          23.26573530349069   -8.14291774661461    0.87615410401902
S          21.85977525792464   -7.38130729073838    0.20187839077018
C          24.50634611451543   -8.11666414618381    0.23875233839691
N          25.52874816573911   -8.09744229580179   -0.28192969208787
H          -2.50976096110709    0.65028975779957   -2.72527131788897
H           0.52182781151009   -1.57640197292946   -0.10775811895746
H           5.70802730838936   -4.17370536656670    2.15700529299812
H          13.21759612469737   -6.89580703919132    3.48536480100661
H          19.21133991776502   -8.62495614677514    3.68064793065671
H          23.64193185607080   -9.27646490657274    2.69817016016370
