87
 SCF done       -150.035723551014          0.000424750401
C           5.07510108091169   -3.15801929373910    3.46712174033588
C           5.88498739416591   -2.37134328249014    2.48502572118605
C           6.96311390647703   -2.95548325634625    1.82719837640287
C           7.74301894672812   -2.23190223637740    0.93654797154656
C           7.42563145467273   -0.90769960511966    0.71149724821532
C           6.33235361547117   -0.30357218487957    1.35816496452769
C           5.56445360854937   -1.03411028476037    2.24452463438178
C           6.21794865054452    1.07991514709731    0.89088114060981
C           5.10340436504512    1.87413323313749    1.04009909454677
C           4.90692114251950    3.06381346377988    0.32145350715835
N           4.71520793079404    4.04125877186633   -0.25266530446557
C           4.02262717592164    1.57918570183356    1.88917551413895
N           3.13462446388753    1.43214085241755    2.60431933481061
C           7.38127952459395    1.36932116712549    0.10718178385736
C           7.96824444002004    2.53483833657389   -0.32179497717050
C           7.76504801447363    3.87690618600144    0.02185364100422
C           7.19044479144887    4.36423751796833    1.17409015772573
O           6.82069173249901    3.55353666907042    2.18789925555985
C           6.46610866989620    4.20523426049514    3.39340089666972
C           5.64393479407525    5.44928157844115    3.08765213306067
O           6.42187451264038    6.36279285591042    2.34111314469820
C           7.07513666345508    5.80276993280633    1.28725065479132
C           7.65630269468623    6.52174782192080    0.28942309310671
C           7.70879071311864    7.93377324482368    0.11765035713006
C           7.19944991129587    8.90535635076066    0.99948757740293
N           7.30424367490200   10.18939837157227    0.75839360375509
C           7.92207781819149   10.57984547098571   -0.37270395223759
C           7.98826136422139   11.99201781014597   -0.53482607325005
C           8.47033962924229   12.71405159131118   -1.58317836793690
O           8.96700073410331   12.15034287498617   -2.71767856033481
C           9.07928310577799   13.03558434221087   -3.81619112685697
C           9.69058697171631   14.35762054804836   -3.37353759885463
O           8.86041563976563   14.97522023992344   -2.41032398733489
C           8.42154087903720   14.15596335841279   -1.42668766459184
C           7.84440139603338   14.63031699712131   -0.27854831788324
C           7.76410662352092   15.98081272083266    0.12627629244831
C           8.54472193740883   17.04375653032529   -0.20238668960573
S           9.96766949116604   17.07970538252599   -1.21963135595430
C          10.26716462971052   18.80051364293145   -0.84164140979472
O          11.18684337718646   19.43942747803938   -1.26934252007597
N           9.28937595034675   19.25282737823245   -0.00291241400893
C           9.28821383375787   20.62525124010090    0.45270413574265
C           8.31504728942743   18.35347697558720    0.40266252202381
O           7.41428360401827   18.64702292011912    1.15806890921047
Si          7.25404635980382   13.15002878800997    0.76243871536309
C           5.35959062335619   13.03523083719253    0.85197114984422
C           8.10563234063401   13.08918914143508    2.45773054100175
C           8.43963820522377    9.60795945611262   -1.25005018083594
N           8.33383158164547    8.32416618726642   -1.00929300260213
Si          8.34461112754196    5.35901792690277   -1.02655794495665
C          10.23675828848866    5.39803449507143   -1.19370353312050
C           7.39150018106983    5.46257006556579   -2.66344262404911
C           8.09090406803535    0.08787322528205   -0.15142708730818
O           9.03743493007925   -0.08096238265240   -0.88985339609345
H           5.16209160742972   -4.22544416219477    3.28100530561395
H           4.02706210915844   -2.87135276361021    3.42035137850107
H           5.42963411295391   -2.96001752655570    4.47931697946967
H           7.19514736820635   -3.99348950868915    2.01670137191791
H           8.57905534458416   -2.68409191333862    0.42539621761957
H           4.72722120923197   -0.58997218388237    2.76005737209030
H           8.77169155337510    2.36752276914501   -1.03426246201721
H           7.37667310792268    4.48583606195782    3.93955340843928
H           5.89569449886674    3.48085693636568    3.97764673609124
H           5.35034547844071    5.96767163084424    4.00122814311878
H           4.74905053242129    5.16813990160780    2.51630862573295
H           6.70172335117198    8.61920002906670    1.91450736405678
H           8.08434797213808   13.21514323173749   -4.24616256891376
H           9.70903625187641   12.53203027033013   -4.55117552863445
H           9.77059815413271   15.06010765056723   -4.20378218160964
H          10.68588089961836   14.18502411696629   -2.94336711157670
H           7.00767772000519   16.20834410680008    0.86976548053895
H          10.24350646848179   20.85991503956776    0.92207131974978
H           8.47561149890976   20.72465739320556    1.17071113706110
H           9.13138771160758   21.30096233605078   -0.38866641006132
H           4.90433818209821   13.13569441338131   -0.12839788283981
H           4.95452770863741   13.81245416614139    1.49146623287788
H           5.06807324097819   12.07458685495351    1.26178265025205
H           9.18032926964111   13.21623616391864    2.37149887811374
H           7.91630230383062   12.13414831665106    2.93506970202425
H           7.72741420991030   13.87186817292868    3.10690146135084
H           8.94832746618887    9.89436869034910   -2.15908510456936
H          10.73146546113213    5.27196380095942   -0.23551071722358
H          10.54978413809876    6.34794970202255   -1.61216771543249
H          10.58114671179605    4.60979246493747   -1.85472228572466
H           6.32915295927781    5.30793651440443   -2.49817416112038
H           7.73608455498286    4.70998830231033   -3.36533987158602
H           7.52777098958573    6.43762245918935   -3.11828548625338
