89
 SCF done       -161.292409880355          0.000446216780
C           0.32857820426657   -2.32787217606474   -4.61449938324516
S           1.41334865499360   -3.02721180873161   -3.32733652275391
C           2.02946537361882   -1.51515553267846   -2.62470899497903
C           1.22419228584986   -0.70379886591495   -1.81455854086087
C          -0.12274882964775   -0.92227776909680   -1.45731510848578
C          -0.66110859252990    0.07824777279775   -0.69323352542704
C          -1.97062980203827    0.22175260275395   -0.16990061227801
C          -3.04931530551627   -0.56027997318700   -0.40717425079358
S          -3.16627207372669   -1.96840873080341   -1.43847401632028
C          -4.91267594682444   -2.16031574444840   -1.07799985862499
O          -5.60310354422485   -3.01895724894921   -1.53969565273197
N          -5.29678260315150   -1.18069266379290   -0.20843706719666
C          -6.66791935754205   -1.11031251713294    0.24910112255975
C          -4.34747056569318   -0.26409825772662    0.21015802064050
O          -4.58256614480758    0.64289615197275    0.97264470436632
S           0.51109653497055    1.34088879882193   -0.36554186435616
C           1.74212831818996    0.50822757828887   -1.27560823512153
C           3.04976507679627    0.91134396498478   -1.49645318891825
S           3.76990288170273    2.40711081417856   -0.89111262706222
C           3.16491452378590    2.51838525145872    0.82114561104002
C           3.85448865470082    0.09339756520474   -2.31001911522436
C           5.19720605745516    0.29601659262515   -2.69398788853418
C           5.69496030607841   -0.69460595766437   -3.49863289746441
C           6.99384174346796   -0.83863403440345   -4.06499549947403
C           7.99284278298605    0.06428733599383   -3.96175407723118
C           9.29014187104890   -0.12148600968959   -4.51606016650095
C          10.33621050040609    0.76146116405558   -4.45778988022866
C          11.51376616341783    0.29034315453412   -5.07667097097194
C          12.76346640213223    0.92877324902697   -5.17399617323202
S          12.91874650254253    2.52208877315991   -4.42615228584650
C          13.93564536618416    3.46011222758043   -5.60787174576539
C          13.78752779416210    0.23615836486033   -5.80016017289406
S          15.43951723652180    0.74567605684125   -6.00601539862377
C          15.85550972594956   -0.75249678119327   -6.82688233068668
C          17.19268358596715   -0.90644951674647   -7.26644358383682
C          17.86864729957925   -2.06203583597368   -7.52588836400229
C          17.46556690951173   -3.43671442080223   -7.12768774722875
O          16.39229699378062   -3.81506388039502   -6.70504767548527
C          18.67518642289899   -4.25898152067371   -7.28466211258764
C          18.85621008368365   -5.59562105633291   -6.98609701734374
C          20.10181023478442   -6.15893867031107   -7.21612834006980
C          21.15394664957809   -5.40414477276550   -7.72858176208092
C          22.49850230486220   -6.01663212338381   -7.95696834875467
C          20.96237400149592   -4.05412541045692   -8.02785949134122
C          19.72283608842627   -3.48088513685258   -7.80966344014930
C          19.23199094790298   -2.12392606342734   -8.02731486092159
C          19.90742517224875   -1.12066834805861   -8.66814358212563
C          19.37749965793973    0.15415897696415   -8.96347367093454
N          19.01115927894751    1.20172598569471   -9.25806384563655
C          21.22409471271704   -1.24527447374177   -9.16020677166654
N          22.29261354303216   -1.28502247248365   -9.57751465696319
C          14.76348855766410   -1.56923088394332   -6.95934250069836
C          13.59261940101030   -1.05647553942906   -6.36756434613909
C          12.34447976767656   -1.68938487080388   -6.26712716333890
S          12.04578258289036   -3.30699370482331   -6.93106691661921
C          13.10449992636128   -4.31370068752496   -5.83925570107436
C          11.33211689331441   -1.00544244777556   -5.62781279585874
S           9.72156288959468   -1.59600300470908   -5.36440883778455
S           4.50198302837604   -1.94085594685215   -3.81860071049776
C           3.32609270405220   -1.10776383071562   -2.85477237369987
H          -0.14243155270481   -3.17433790202579   -5.10257191147837
H           0.93317208029498   -1.77286548203380   -5.32557548327645
H          -0.42312605010977   -1.68851905395409   -4.16286839046941
H          -0.66063306913811   -1.80944953255228   -1.73696255529390
H          -2.14637612821779    1.06544799829587    0.48774396792206
H          -7.33875887947319   -0.99686543911278   -0.60265084165437
H          -6.74345826032103   -0.24737171995691    0.90889421349022
H          -6.92875023884851   -2.02189971725426    0.78704601521979
H           3.90703272629872    3.10611274446520    1.35260863394661
H           3.10546799238837    1.52187900950869    1.24481171364281
H           2.20156507915574    3.01672536493329    0.85814735117576
H           5.76490939144260    1.14971802522786   -2.37301482148580
H           7.17062060057915   -1.75257393825028   -4.61795887215435
H           7.84062771319290    0.99368833691448   -3.43099230036503
H          10.27337931112470    1.72242714817296   -3.97962908268573
H          13.66986730221477    4.50168705720782   -5.45488594403143
H          13.68418988386095    3.15587118661855   -6.61813760985823
H          14.99271232756309    3.31442365938307   -5.40816328000417
H          17.74341180009426    0.02394341493532   -7.34685214435596
H          18.03958212732127   -6.17676482118176   -6.58605051884116
H          20.26262510618788   -7.20342871045431   -6.99286689981933
H          22.47748386240082   -7.08961694538900   -7.78684906246637
H          23.22993458733823   -5.57183075936448   -7.28272757896213
H          22.83358824486633   -5.82576162213632   -8.97496555240203
H          21.78722853910830   -3.47938267625163   -8.41774780830251
H          14.78470524707519   -2.49485481299254   -7.50166781087275
H          12.89718025889892   -5.34463812432150   -6.10715431830739
H          12.81611842051855   -4.13128929720062   -4.80848700906541
H          14.15381174357506   -4.09020708173915   -5.99763688854808
