90
 SCF done       -190.507847580779          0.000626522075
C          -2.00449648163715   -2.63353501319567    2.24176161883821
S          -2.74262897909767   -2.15030077656307    3.76210600579673
C          -2.50084501390033   -0.41218632465435    3.40748519155414
O          -2.82922492576875    0.48023035224542    4.13003185702568
N          -1.89100573305586   -0.29935668852679    2.19189669445476
C          -1.58500247921958   -1.45069364218854    1.48541547268585
O          -1.04013494622147   -1.41821094221604    0.40571403338212
C          -1.57190862695046    1.00976871477598    1.66166803833845
C          -1.88090332228138   -3.95863785712677    1.95481939713073
C          -1.34792274191589   -4.62944638851542    0.83157829977441
C          -0.85387003202799   -4.18016799555725   -0.38697830781351
C          -0.42610599006924   -5.22516940449133   -1.19463471808371
C          -0.58400849106188   -6.49642321865159   -0.59381094181992
S          -1.27773419477567   -6.39263824338349    0.95554481968392
C          -0.08840133673528   -7.48391474750164   -1.47126263474661
C           0.38182293191192   -6.84130547452160   -2.63853702617629
C           0.17424397904595   -5.40685704951479   -2.50685268322196
C           0.47771848979132   -4.44972220458170   -3.42851329861444
C           1.06777984977655   -4.77218869020630   -4.67049769812133
N           1.55024230462068   -5.02504690272477   -5.67934970102221
C           0.22375593520622   -3.07422065470466   -3.23229538896720
N           0.02520244825787   -1.95185396984696   -3.11365115025445
C           0.91461599575505   -7.72792529356169   -3.56059739646015
C           0.86260981075604   -9.04347642330362   -3.10835209984833
S           0.12725383740518   -9.18086820700895   -1.51902582691533
C           1.35812093533261  -10.19003149626264   -3.77640006739985
C           1.27508997201167  -11.47110147700088   -3.18340559505452
C           1.83079897046919  -12.64533378603095   -3.80336027929409
N           1.73019008114631  -13.82718314360827   -3.18588668332959
C           1.12594821543662  -13.91223191790685   -2.02502889535764
C           0.57354905879470  -12.74391280779889   -1.40815274794801
N           0.66580147466064  -11.57601405066101   -1.99849750851289
C          -0.08034562536886  -12.83260330845007   -0.15445450299186
N          -0.60340020030586  -12.92956222658437    0.85953924636755
C           1.02474139995721  -15.17415456022494   -1.38830319401751
N           0.92639527958487  -16.18041766067650   -0.85084311133874
C           2.49688559892989  -12.59964519379921   -5.04927258456268
C           2.54357020801294  -11.32690598143445   -5.66739953207257
C           1.98655644599758  -10.14702411428418   -5.04404537629383
N           2.15700886155977   -9.06716360431669   -5.80722304495785
S           2.92329397636947   -9.47571956174893   -7.15364999557786
N           3.08858902662983  -11.04006702994854   -6.84989748863666
C           3.09150048591065  -13.76070064336019   -5.60356359766761
C           3.79245216850544  -13.84403429814888   -6.80318369913027
C           4.28295883118226  -15.12029656431583   -7.02898988730978
C           3.95246572855359  -16.02372619398174   -5.99460595228386
S           3.03110656292154  -15.29408107389424   -4.75031583364816
C           4.51485840527337  -17.27943071494058   -6.30847233586718
C           5.20523820176314  -17.17783025533465   -7.54187840070864
C           5.07283462958875  -15.81630661872757   -8.03409050022342
C           5.57586328742965  -15.28646876891135   -9.18476788390915
C           6.33314538069265  -16.02739768097889  -10.11897435736947
N           6.94829165979606  -16.59235664423128  -10.90353542467246
C           5.37070957185473  -13.93325105956757   -9.53288788936679
N           5.21200874622330  -12.83533151875764   -9.82283251758108
C           5.81573051897201  -18.36248929662751   -7.92552928148488
C           5.60681421553817  -19.38236113222538   -7.00333548747273
S           4.61865780897456  -18.83616381042376   -5.63750011126241
C           6.02469715856169  -20.72810597727246   -6.93819677777432
C           6.80149642245278  -21.48621726658946   -7.76885372094859
C           7.13360778289044  -22.88229469118660   -7.51351719623358
C           6.76117231156751  -23.64724904930536   -6.43948860973048
C           7.13375255971949  -24.99808418532776   -6.26144311082552
N           7.39328422590184  -26.09467091826309   -6.04307596589431
C           5.96755613902497  -23.24151597007026   -5.34462428967092
N           5.33643713199850  -23.00869595886863   -4.41333847988466
C           7.96615604780609  -23.35010930360883   -8.61929312152007
C           8.15690611133803  -22.29083769195143   -9.52198609427445
C           7.45333902238546  -21.09117731321488   -9.04674611947271
O           7.42938077781553  -20.01395231771891   -9.60323945844835
C           8.91444091370603  -22.44701625981000  -10.66766169210470
C           9.48858535437890  -23.68333838312300  -10.91107436229311
C           9.31188728494680  -24.74934002184168  -10.02947598730127
C           8.54542591045356  -24.58155415172953   -8.87723468008811
C           9.92426886867655  -26.08015729194854  -10.32824115496818
H          -2.47535316247056    1.61630554084127    1.60643459402268
H          -1.15030157024059    0.86343122650530    0.66852214746614
H          -0.84912534335271    1.50761366606465    2.30818854396025
H          -2.24754450131563   -4.62483755524717    2.72831562657711
H          -0.81302768027161   -3.13717614417352   -0.64289272154771
H           1.33436270392286   -7.47347559956247   -4.51634004074026
H           3.92003084106738  -12.99254048979838   -7.44576944557760
H           6.39404226120682  -18.50815429604955   -8.82116580670713
H           5.65169279290594  -21.23051183478479   -6.05345698248135
H           9.04639801407680  -21.61688226804736  -11.34428752489825
H          10.08597821208788  -23.83047100690713  -11.79885918415242
H           8.41791305259785  -25.41511841589923   -8.20613440543681
H          10.88556525745865  -25.96364421292953  -10.82315989407776
H           9.27078056228671  -26.64320765011741  -10.99547870603683
H          10.05730236613369  -26.66094896741350   -9.41925341468381
