90
 SCF done       -187.984791314533          0.000633215152
C          -1.76939058983509   -0.85038095281773   -0.11114886977173
S          -1.54553778777761    0.88539928943885    0.06318716743966
C          -3.10666558964495    1.07170400026743    0.91855053914478
O          -3.54015993471745    2.10911119234988    1.32186050311461
N          -3.69299434813512   -0.15607225373315    1.02098857776181
C          -3.04032234760591   -1.25774367239273    0.49226619855835
O          -3.51059697455884   -2.37119474429954    0.54678004908601
C          -4.97940810337706   -0.29207915506474    1.67167386009317
C          -0.81883683557090   -1.58106660545106   -0.75556445486291
C          -0.72806925769700   -2.96316186418583   -1.03501196943872
C          -1.53468401207998   -4.04475069072460   -0.70891076737054
C          -1.03534194807191   -5.24163158503478   -1.20721030542587
C           0.16645603128358   -5.08412809935925   -1.93427133012698
S           0.67872390098201   -3.46181746658444   -1.98548038617493
C           0.57673722400829   -6.34780821635046   -2.40950247466625
C          -0.35591928817291   -7.31588284853774   -1.97939030826861
C          -1.41336462943397   -6.64562814320058   -1.23454152598675
C          -2.54428726925455   -7.21471863047422   -0.73236319030799
C          -2.86690633080645   -8.57416503798376   -0.94823459297420
N          -3.17752037948894   -9.65790702620360   -1.15370396584992
C          -3.51654427604953   -6.49175221979519   -0.00520848674815
N          -4.32197507829333   -5.94287678419124    0.59745613383596
C          -0.02335883233920   -8.60545003264538   -2.36808004207445
C           1.14645146685806   -8.62981624884786   -3.12110089051024
S           1.84417743487145   -7.02850637132163   -3.33163209968797
C           1.73728389001723   -9.77457188870215   -3.68549467106346
C           1.37302540174338  -11.10718788856354   -3.43730682163431
C           2.12930355992920  -12.05197507419553   -4.21254972220397
N           1.84162799551925  -13.35522981364096   -4.17441328263754
C           0.89464493419384  -13.73741487449663   -3.34779608825829
C           0.49822422544493  -15.17036559253610   -3.38364833888815
O           0.92245967008985  -15.94224511645558   -4.21437278243438
C          -0.48258291034695  -15.56657197659867   -2.35653569391202
C          -1.02562058838160  -14.71568550873606   -1.47990886020555
C          -0.69386317597119  -13.28041796326597   -1.41855056003268
O          -1.12365136246074  -12.54608948566379   -0.55715773367868
C           0.24292279173516  -12.81210819825876   -2.47402641148751
N           0.46561608539750  -11.51938124748529   -2.54949132575342
C           3.10103821443010  -11.44569519167248   -5.02301205815545
S           3.03654532298357   -9.72072279065939   -4.83513213814366
C           3.99279238332268  -12.10111607625309   -5.89147452232049
C           4.21104870178934  -13.47402641694544   -5.95441207038170
C           5.13594469049975  -13.80075946285466   -6.93579921886478
C           5.61174515712445  -12.67793350434621   -7.64650521091024
S           4.94990973148226  -11.21210197758733   -7.06907882817591
C           6.48853316126568  -13.12138857068561   -8.65876118561214
C           6.58266645119872  -14.53173120710220   -8.58858476357619
C           5.75287970727295  -14.99869810531708   -7.49015340844349
C           5.60760231937402  -16.27635038140329   -7.04051683868692
C           6.20074183127804  -17.38816007507172   -7.67966257704295
N           6.64399415245053  -18.31350796951174   -8.19000755592321
C           4.87932159741648  -16.58910762921305   -5.87012239607266
N           4.34237786998676  -16.85858131562138   -4.89430028822938
C           7.43160659502476  -15.06950413031864   -9.54584622454791
C           7.98656495700979  -14.09299545332427  -10.36384672762208
S           7.42833618365293  -12.47291980768219   -9.91836531618641
C           8.83218043157695  -14.16132525423401  -11.49068009488712
C           9.54826876663574  -15.20441860458453  -12.00681347416148
C          10.29285271533046  -15.14035478410129  -13.25483694667488
C          10.20010193333781  -14.17211622045801  -14.21989451913159
C          10.93973697756451  -14.17960833464362  -15.42225079475469
N          11.50989432294027  -14.11683597205460  -16.41649401358067
C           9.34301024709245  -13.05121867134606  -14.18806984979363
N           8.66561274258847  -12.12567095114068  -14.25163639244088
C          11.10604188205354  -16.34922762001680  -13.34984872584422
C          10.82844805420474  -17.16760191859778  -12.24227206870421
C           9.83977765045062  -16.51689964652759  -11.36882937535878
O           9.40720009452583  -16.95658985370953  -10.32524161836916
C          11.44965368221318  -18.39206737335919  -12.07923193899657
C          12.35929920149955  -18.79876740172590  -13.04016296895709
C          12.65416871372904  -17.99889567557382  -14.14490967531426
C          12.02386085542874  -16.76624917021027  -14.30009605419345
C          13.63970629561052  -18.47520686873321  -15.16355536138511
H          -4.90435265388474    0.01838224510899    2.71373904645193
H          -5.26415501002025   -1.34127612730526    1.61009619813700
H          -5.71704903790347    0.33194116665166    1.16767179175175
H           0.02033984762714   -1.00327674697803   -1.12773429844235
H          -2.43748651991950   -3.93711181153644   -0.13594996245963
H          -0.56574926296259   -9.50358784878869   -2.13348853526654
H          -0.74929724762872  -16.61486308412562   -2.36247893908239
H          -1.74549806560858  -15.04849492062004   -0.74439051417330
H           3.69054747650269  -14.16201918443160   -5.31283640553723
H           7.65568633938014  -16.11458200447287   -9.65950842559612
H           8.91640326240788  -13.21553368789862  -12.01384028439503
H          11.21815791215508  -19.00485788699617  -11.22176609231060
H          12.85513634022421  -19.75306438423423  -12.93868148786126
H          12.26324904220765  -16.15414794555711  -15.15454371049519
H          14.56929749373489  -18.77605892780401  -14.68340914572549
H          13.85389037887435  -17.70004540859308  -15.89404850821061
H          13.24270334841525  -19.34430026009322  -15.68757060183382
