126
 SCF done       -252.719482593316          0.000766830286
C           3.47720911041921  -12.96989923297119  -11.79429908837680
S           3.31976762875176  -13.47436897642769  -13.47429447625036
C           4.36996483489999  -12.14744744024740  -14.04556424153179
O           4.66476744447582  -11.95335203314016  -15.18720758614726
N           4.76645779617368  -11.41077212333759  -12.96520494321827
C           4.33867585745427  -11.78694629737698  -11.70389926505839
O           4.65027199376476  -11.17005553322893  -10.70965215334694
C           5.62174152455222  -10.25777380879666  -13.15274701567052
C           2.78418073487822  -13.63208789829046  -10.83179357304375
C           2.74452207217973  -13.44069255207978   -9.42657923282096
C           3.54994287690119  -12.72513445980783   -8.57873473615705
C           3.14890307761333  -12.77283243949013   -7.22981124209380
C           3.77702606217380  -12.15273600051247   -6.12319860583975
C           4.91219932615259  -11.27083539988605   -6.28053263164334
C           5.16296198983895  -10.36476381967910   -7.27544983058373
C           6.34923441092994   -9.63515129670579   -7.05567916612495
C           7.01919790574175   -9.96621268867476   -5.91130230622938
S           6.17204513977333  -11.21626217889438   -5.07281993246288
C           8.27464024630866   -9.40039583860867   -5.36092651941068
Cl          6.89161910505380   -8.41989722835957   -8.14605677305214
C           3.22095542151836  -12.41078867245074   -4.87760164001701
C           2.07222475944626  -13.22109645919984   -4.68412479913658
C           1.44416611693708  -13.84685425839334   -5.78819010549561
C           2.00233380055972  -13.58934994231943   -7.03677132068731
S           1.45425602700326  -14.25317468376315   -8.54873255973790
C           0.30468425266881  -14.72337691149642   -5.64020239831512
C          -0.75871081904726  -14.87339516249163   -6.48734573293189
C          -1.66164814792992  -15.86827569443666   -6.06033454734584
C          -1.30328302986810  -16.49827966639356   -4.90232523385391
S           0.18220762291770  -15.84322807918022   -4.30762128762352
C          -2.00364929804729  -17.59427427526720   -4.18694928778162
Cl         -3.09420712946144  -16.24802560457388   -6.93578355584806
C           1.66572429245840  -13.22988219848637   -3.33619962510654
C           2.47202759575868  -12.47907384320096   -2.51158729694263
S           3.78383199414203  -11.72439852405725   -3.37537338987947
C           2.32365205114238  -12.26717495020375   -1.11254277548661
C           3.24753435013371  -11.45607369827034   -0.41967342243014
C           3.12769607237140  -11.17037712929793    0.98383423733617
N           4.04039283121862  -10.39152352843538    1.57827650105914
C           5.03486110188094   -9.89476568116572    0.88211699244246
C           5.15045956290930  -10.17378105455605   -0.51795897505862
N           4.26342195386868  -10.93376706852170   -1.11385222571901
C           6.21439851428840   -9.65061480356582   -1.29301249746457
N           7.07998518476631   -9.22307073139253   -1.91022806217891
C           5.99942320894704   -9.08582144814769    1.53241792016271
N           6.80287729280657   -8.43301078108107    2.02264785296877
C           2.06903023806913  -11.67782134874470    1.76595691957126
C           1.15532653710896  -12.51663174590948    1.08687731501556
C           1.28059633991888  -12.80715762167129   -0.32799315998998
N           0.30513982933294  -13.61102440916081   -0.75191817036539
S          -0.66084421233134  -13.96735750374706    0.47887318471519
N           0.09435669753487  -13.12561996188707    1.61715803033392
C           1.94760772309934  -11.31499219430269    3.13696574102942
C           0.96761148608526  -11.71479183505180    4.01543450127590
C           1.08146836735069  -11.13727904513264    5.29349512010799
C           0.26048830888301  -11.35980175874431    6.42431279334309
C          -0.91208887255986  -12.20431817585917    6.38482709872815
C          -1.38664750163059  -13.02489759011027    7.37114050746788
C          -2.59169454571108  -13.66536691013867    7.01753880330718
C          -3.06197859802342  -13.33886718040672    5.77692154413107
S          -1.98817327781784  -12.22113773952661    5.01129107617524
C          -4.29897582787398  -13.80631524684132    5.10260129971738
Cl         -3.39366796601832  -14.76644995693158    8.06867552832584
C           0.63196920963266  -10.69969411454566    7.59205000091731
C           1.75935954036576   -9.83735293503927    7.67928322781969
C           2.58591437979958   -9.62994548410552    6.54800156850260
C           2.21024984429869  -10.28049016607367    5.38113376249227
S           3.08227691941116  -10.21127002658931    3.86844831553243
C           3.76557374013202   -8.79516782800328    6.58700132075070
C           4.24382569436686   -7.97679185146193    5.60002318509131
C           5.45711989481648   -7.35143197565260    5.94926911821852
C           5.92828532944445   -7.69002616821199    7.18725573118107
S           4.84686614318326   -8.79631173836250    7.95390513839700
C           7.16857705849513   -7.23434177051605    7.86260356827893
Cl          6.26650675091373   -6.26368198644558    4.89164726980559
C           1.86253449030394   -9.21913094970526    8.93845248745036
C           0.87344852942880   -9.58162953475962    9.82041076698318
S          -0.23885144243121  -10.73895150991593    9.09392533838853
C           0.59672852499340   -9.21286094856716   11.15797760008471
C           1.20870282085377   -8.33849119264574   12.00924374789227
C           0.75277838136298   -8.09994118751628   13.37465192500963
C          -0.25817750180200   -8.73909371213160   14.04161031921026
C          -0.63604583298690   -8.44961101521749   15.37157974323765
N          -1.00279536550172   -8.27475462582458   16.44518863997838
C          -1.07747081612708   -9.77992288952297   13.55147780983442
N          -1.79183907642208  -10.63128288080364   13.26076142296098
C           1.59110744983949   -7.04958000344843   13.94735263462807
C           2.55416398035434   -6.67269827375455   12.99651752438418
C           2.37726033541185   -7.45150377706617   11.76174148796442
O           3.06333118911639   -7.35629201832565   10.76505439546430
C           3.49306928551412   -5.69673748963314   13.27118086936829
C           3.46595340917118   -5.08874531889410   14.51569143679451
C           2.51766625308967   -5.44462830408446   15.47245275494064
C           1.57407060892129   -6.43117174203567   15.18580755080128
C           2.48537092022433   -4.76346792130620   16.80307216026920
H           6.51569052927600  -10.54819598814726  -13.70413293915268
H           5.88706664748834   -9.88508933579963  -12.16449888355910
H           5.09271791107520   -9.48723287004860  -13.71451097991958
H           2.13440057374476  -14.42250981915557  -11.19055519889332
H           4.42263443812628  -12.20452636863042   -8.91809395669152
H           4.51855563014250  -10.18273910079860   -8.11521779175337
H           8.53863563435208   -8.49398075041075   -5.90002367782485
H           9.09269974090368  -10.11471182652329   -5.45616267957020
H           8.15045224162055   -9.17140424699085   -4.30357659700471
H          -0.92253402227608  -14.27478303732001   -7.36365454429167
H          -1.48030947646057  -18.54030135826449   -4.32971926484192
H          -3.01500243115422  -17.69673332657718   -4.57280643074026
H          -2.04425539839626  -17.39106552199903   -3.11847142661920
H           0.80099025164748  -13.74198993031301   -2.95838462288409
H           0.20669821441007  -12.41293922005818    3.72299176031258
H          -0.88339444186614  -13.20402618573711    8.30282175013781
H          -4.66868876080945  -14.70223291288335    5.59565448078358
H          -4.10626906434977  -14.02384754411209    4.05394153376235
H          -5.07414020056398  -13.04058072611135    5.15153463583485
H           3.73748891500795   -7.78732144629739    4.67234402086318
H           7.90903027780571   -8.03453854623016    7.88670460602542
H           6.95725329023263   -6.94007189125748    8.88908765555663
H           7.58793397445456   -6.38870026157298    7.32307306722996
H           2.62394284606692   -8.50891704748747    9.20048877244339
H          -0.27085442943477   -9.72817893984834   11.55324260277000
H           4.22402768711486   -5.42547883221302   12.52507333181976
H           4.19123486354363   -4.32415418806234   14.75258496967544
H           0.84671192792470   -6.69254856024141   15.93691799019545
H           3.43702780322016   -4.28729341739113   17.02415228620931
H           2.24760386661285   -5.47229929277292   17.59299128885981
H           1.71138086535981   -3.99537384544235   16.80409383996401
