51
 SCF done       -125.940975157980          0.000299317028
C           5.83577430596834    1.74396913716236   -1.41761891140259
O           5.51392961981282    0.55878864229140   -0.72143874941982
C           4.48688194878216   -0.18585912666397   -1.18120347334598
C           3.65754029335488    0.05477965772428   -2.28117666057632
C           2.69319979181111   -0.91974329476715   -2.46140137798874
C           1.66516879804995   -0.97426036600618   -3.47322080224776
C           0.73029490577527   -2.02416209209671   -3.52596260176157
F           0.78968476424875   -3.01685527710065   -2.62700964180630
C          -0.27126231007509   -2.07839181462653   -4.48374390556411
F          -1.12961326876298   -3.10359554159479   -4.47565859248665
C          -0.40117709187208   -1.09355885811790   -5.44582453908883
C           0.50741386980362   -0.05163983885029   -5.41907312419308
F           0.41616677118688    0.92100014131553   -6.33385965090974
C           1.51241886287920    0.01160664246997   -4.46532743436829
F           2.34572303663161    1.06299450340305   -4.52235999402025
S           2.82898776641329   -2.16273051201114   -1.24784172587869
C           4.16329022765193   -1.36037224620151   -0.50597725969511
C           4.82054044600302   -1.82275919368650    0.66092499220702
S           6.08449093768485   -0.89165981728452    1.40286563942342
C           6.28032867448491   -2.04472219410630    2.69067089295459
C           7.21266141409278   -1.83552169657558    3.74738239096290
C           7.47982108337496   -2.66182924079208    4.81566622879868
C           8.44803571590763   -2.13554128970718    5.69120538040171
O           8.86506522816105   -2.67269710041094    6.85292168202020
C           8.36075187303373   -3.94248325018439    7.20506992338464
C           8.92510893312486   -0.89752666767491    5.28021468619351
C           9.92043669759234   -0.08021621795434    5.94076591155227
C          11.06319673903085   -0.64229833822989    6.52484126411108
F          11.30153177256075   -1.95241035730143    6.39957098528038
C          11.99159446291699    0.14632344303069    7.19064065910735
F          13.07072724059101   -0.42448047386809    7.74150839384869
C          11.83433327813919    1.51745405840638    7.28257537932932
C          10.72620114561956    2.09079462150660    6.68423405574923
F          10.55832701176296    3.41770639779618    6.75267242687026
C           9.78706426919201    1.31196050862025    6.02553056176983
F           8.71561607297478    1.90548766628026    5.47804575608695
S           8.14764316856401   -0.37995313130839    3.81778772274069
C           5.40619197096235   -3.10010381067678    2.51735217577139
F           5.32963790923995   -4.14568105563003    3.35253298418982
C           4.58978373192156   -2.97513663749865    1.38599053852196
F           3.66734857289926   -3.88131290546812    1.03781445242848
H           4.99768743335953    2.44637706272996   -1.41316699103245
H           6.12806174611694    1.52904380762461   -2.44946548550727
H           6.67783091675609    2.17774761768589   -0.88226655733118
H           3.76349700258124    0.91445053669732   -2.91223457185279
H          -1.18012841115694   -1.13612534627555   -6.18763265326041
H           6.99065458177203   -3.60664985103122    4.95573861636529
H           8.84256825771396   -4.19614715624400    8.14716925624230
H           8.61590393457640   -4.69356231803926    6.45261836098798
H           7.27581654836674   -3.91533197462493    7.34402022923972
H          12.55969734844066    2.12372454782306    7.79836315717463
