66
 SCF done       -163.401268625835          0.000421910088
C          -4.63002867670771    0.12940252906914    0.44305356383952
C          -3.84053194301464   -0.21033735305149   -0.64093979882887
F          -3.79433289119266    0.60649134561208   -1.69736030930837
C          -3.10278767067866   -1.38613271889503   -0.65581019247286
F          -2.38579893125557   -1.67171380844877   -1.74977369629393
C          -3.11999114346454   -2.27889953178194    0.42748757560981
C          -3.93573332169828   -1.91931491617006    1.51085177342351
C          -4.66923219172276   -0.74195799743510    1.51648265858725
F          -5.42558345786884   -0.44369545211072    2.57739075273207
F          -4.00440332380975   -2.72243026666264    2.58392510484837
C          -2.34715188373379   -3.50190402697189    0.42230414447251
C          -1.21759965280093   -3.78128894164244   -0.32010836730167
C          -0.74443530373664   -5.07448792488107   -0.08632953499796
C          -1.53242600235355   -5.78232146504378    0.83603633490678
S          -2.82827679379110   -4.85805847389082    1.43204673396498
C          -0.98616123371486   -7.08428714121475    0.99196199259943
C           0.14615543886799   -7.19650516532853    0.16654906227582
C           0.34159246505877   -5.93198125005200   -0.53115720989257
C           1.33944431711595   -5.62046119795209   -1.40552544009234
C           2.34696694093563   -6.54307100830354   -1.76191330793793
N           3.17071602808028   -7.28221730749177   -2.06007704288046
C           1.44640952367541   -4.34832734060797   -2.00882972479267
N           1.54861113912459   -3.31598304344464   -2.49632670903209
C           0.74760635456817   -8.45109556710728    0.24100231803072
C           0.07578993136117   -9.28588914199842    1.11844956766661
S          -1.30844593437361   -8.51595493271350    1.86180791123383
C           0.41141539923033  -10.63068351568812    1.41001480056289
N           1.40481488057026  -11.25659119212250    0.84835109869545
C           1.48095785125047  -12.51048906634712    1.28734230945444
C           0.51981705782974  -12.90717475106872    2.23575321158151
S          -0.53272627259304  -11.59466335057044    2.57732851942334
N           0.58649470090557  -14.16551316250253    2.66334639380134
C           1.56851481810331  -14.79688077916232    2.08790272023332
S           2.52267211987911  -13.82828437528107    0.93278201144712
C           1.86311992638008  -16.16075377818639    2.33131414990646
C           1.19428295427421  -16.99246288870486    3.21393340638537
C           1.71398050249626  -18.28500210363621    3.19259670421221
C           2.78065230496084  -18.42952201220220    2.28854404776513
S           3.14904060251646  -16.97812967703533    1.47120653597559
C           3.22376163774797  -19.77873836502437    2.32369660622894
C           2.43775738864430  -20.48327207726847    3.25023407994436
C           1.47164478126790  -19.56953917891488    3.83691438010764
C           0.54193623568359  -19.84771038431636    4.79374705670344
C           0.41080472183095  -21.13011387439057    5.36987418649206
N           0.30106894819123  -22.16434310376334    5.85149945590311
C          -0.34890203662511  -18.87041953341144    5.28830817048808
N          -1.07857457909554  -18.08719349907884    5.69832019586324
C           2.78319888345896  -21.83402048271268    3.33449783281822
C           3.82631369743928  -22.15452697331479    2.48950474949542
S           4.39680610091875  -20.76065186885231    1.58294391508399
C           4.43147995433167  -23.45288722040012    2.28673275052422
C           3.74225302569024  -24.64350033404662    2.56624915867925
F           2.47776386551228  -24.60024554701475    3.00401383626953
C           4.32933573768240  -25.88627471036869    2.37178329031257
F           3.63169826333802  -26.99182444174381    2.64822809957420
C           5.62026985103935  -26.00381352614723    1.88858941512745
C           6.31341754698710  -24.84268921428221    1.59797655961017
C           5.73517182922556  -23.59627803803889    1.78864816055191
F           6.45741100095128  -22.50294834684818    1.49856274204508
F           7.56146324710326  -24.92331626934715    1.12632547350785
H          -5.20042088474166    1.04282785423956    0.44878726006484
H          -0.74988541182946   -3.08011114164138   -0.98558917806630
H           1.61961199560696   -8.77301888870801   -0.29721450113450
H           0.37785934727908  -16.64345226387517    3.81835369612412
H           2.30526326080083  -22.53821314120120    3.98944376836161
H           6.07014296224713  -26.97073267834129    1.73886477009048
