123
 SCF done       -241.754259334980          0.000553440183
C          -8.79821902319886   -2.07044030658101    1.15050648548464
C          -9.97770445200254   -1.55678651613749    1.59569995474567
S         -10.41759728489178   -0.15518649061495    0.69195249593689
C          -9.00584925143751   -0.25422970922928   -0.29399335308262
C          -8.24435302041184   -1.31828923336787    0.06475958693722
C          -6.97947965620998   -1.93165944528598   -0.35704172714585
O          -6.24268967654641   -1.55598280485131   -1.24615445768048
C          -6.79557421723065   -3.09975167725266    0.53450763180660
C          -7.91636256465159   -3.17889176870798    1.45913230281444
C          -8.14838756819234   -4.09446682349231    2.45300246475474
C          -9.30018650332321   -4.01232492342307    3.26312719890154
N         -10.23058702148927   -3.95973521544029    3.93295383321529
C          -7.32728967680383   -5.18523683145865    2.79721813849679
N          -6.71117580644479   -6.09424332537752    3.13544701089585
C          -5.74291273503093   -3.97243011693228    0.51565536439729
C          -4.59310479859576   -4.01416026446786   -0.29765520965728
C          -3.61609294802541   -4.97903915437096   -0.11461836279610
C          -2.52421139413389   -4.86775238943626   -0.98365725081903
C          -1.38316624015601   -5.70982550788730   -1.06568485432221
C          -1.14615039951619   -6.79590338021698   -0.14257071680514
C          -0.56316189797704   -8.00761281157371   -0.39914085569432
C          -0.42665444391722   -8.81671180727751    0.74402662627885
C          -0.88368780772790   -8.23004150256934    1.88490101893740
S          -1.51441270206665   -6.65133396681759    1.55765105374233
C          -0.89904751656110   -8.77377572574600    3.26711878507183
C          -0.47803516551004   -5.41381706459364   -2.07344519108289
C          -0.64260518881078   -4.32578581882707   -2.97304688775812
C          -1.78669163059937   -3.49527326915689   -2.90388697121544
C          -2.69574980920602   -3.78454050365104   -1.88854226133915
S          -4.18201915862535   -2.92429559804308   -1.60072773621471
C          -2.01400883149995   -2.41775726845968   -3.83730909516416
C          -2.61048678078485   -1.20457039245199   -3.61050749760513
C          -2.69710453854708   -0.40097437372330   -4.76069202285575
C          -2.19002425069276   -0.99268085785581   -5.87944018382122
S          -1.57711951970377   -2.56894918624702   -5.52178151518411
C          -2.10691568586668   -0.45266172950193   -7.26033256057362
C           0.47341889211856   -4.17288447525562   -3.81387531373648
C           1.46108036430456   -5.10809113770737   -3.61574104472755
S           1.03660558593096   -6.23988367630452   -2.35195919293491
C           2.71843730703262   -5.21204001382030   -4.27994853939057
C           3.16233937842823   -4.34113378284973   -5.30236455571465
C           4.48099837250352   -4.45600108266504   -5.86499638852140
N           4.87365984397771   -3.58493897059234   -6.81655522818293
C           4.06190799864468   -2.66589645665056   -7.22661265125537
C           2.75607415633010   -2.56779928521679   -6.68812198096655
N           2.34300276373331   -3.37351171873448   -5.76558025868802
F           1.90002672771701   -1.63776214079312   -7.11795155175069
F           4.48990269097666   -1.82421739552792   -8.16494479563977
C           5.41190644256346   -5.43964503963840   -5.46621434867940
C           4.95050776174583   -6.34968217393836   -4.48929050558433
C           3.63224983837762   -6.22473873711533   -3.91419787577111
N           3.39790390670607   -7.16884402864862   -3.00350253608284
S           4.68594503984901   -8.11728706240116   -2.88068434120994
N           5.61309407161074   -7.38350271465891   -3.96674122156311
C           6.73239257171947   -5.47781538641874   -6.00151535082184
C           7.71062928243774   -6.39422355619411   -5.69360941018769
C           8.94013741318390   -6.15203423149542   -6.33204431503790
C          10.12911389803875   -6.91303230239351   -6.23082657166924
C          10.18738090893767   -8.16844287835115   -5.51678818205318
C          11.21950445609037   -8.67923839694770   -4.77682358436474
C          10.96058787382260   -9.96514671460036   -4.26760222576636
C           9.74157361915004  -10.45616433829976   -4.62478298614239
S           8.87271411747842   -9.31448162177482   -5.59445643010345
C           9.13557537405392  -11.76902701377759   -4.28272734676004
C          11.24150437270228   -6.39514329061206   -6.88485144583286
C          11.20410662370589   -5.20964815688834   -7.67080883863205
C           9.98898567398768   -4.49749463859148   -7.83585802389590
C           8.89455318390969   -4.97765928200979   -7.12877155030813
S           7.29883494819481   -4.26484311698632   -7.11764476048495
C           9.88118955127624   -3.34665420245020   -8.70217034744843
C           9.12979901746735   -2.21590387685116   -8.52042299612360
C           9.21823251497420   -1.30966743737941   -9.59159860193184
C          10.01697309380043   -1.74389981536580  -10.60687210123641
S          10.69592050850449   -3.29180894909669  -10.24392325171418
C          10.34398305234556   -1.06002858728067  -11.88450613696557
C          12.46626264761069   -4.87338172342957   -8.18815208135176
C          13.46023607838137   -5.76854277310161   -7.86557968186365
S          12.83202376723186   -7.09369959022861   -6.88704675305297
C          14.83932753601555   -5.81461456038492   -8.15869030904299
C          15.67500960319960   -4.93350145240980   -8.79044357863904
C          15.36763662793290   -3.58130755723911   -9.33416735305461
O          14.30036593211307   -3.00815342949294   -9.39000091087818
C          16.65727542165133   -3.05368821035862   -9.79916994978508
C          17.11254509005383   -1.90880594444650  -10.36705121150942
S          18.81221878689862   -2.00177455949574  -10.64640398486020
C          18.90839949263296   -3.59546359209735   -9.99418324605236
C          17.68395483488683   -4.02552860109710   -9.58242393172808
C          17.09683797876234   -5.20300401747100   -8.97535564830654
C          17.80881637240244   -6.33463645816544   -8.67122557446680
C          19.19491669735867   -6.40905877732276   -8.92448587169625
N          20.32307047194681   -6.49036032944725   -9.11904395139164
C          17.31884783925985   -7.52898806772998   -8.10718260027304
N          17.01121807612858   -8.53986712463044   -7.65552316701367
H         -10.61877645931798   -1.89662949013347    2.38409716068398
H          -8.83436468115729    0.47032497620493   -1.06449255237703
H          -5.76614379475525   -4.77255671322245    1.24661408809285
H          -3.71774531806342   -5.74538554350451    0.63231863053335
H          -0.27525887543730   -8.32547292198758   -1.38433770794002
H          -0.00071640827485   -9.80403488354262    0.72139620029647
H          -0.46646041362802   -9.77122937774478    3.27912988233799
H          -1.91879372489832   -8.82696883245032    3.64771950294720
H          -0.32781407170583   -8.13371618909379    3.93925840306220
H          -2.94215979817520   -0.87876104858857   -2.64184634035711
H          -3.12301569164078    0.58651648406288   -4.75972761838640
H          -2.46710717752327    0.57291953661840   -7.28259560340837
H          -2.70857304869267   -1.05085451933529   -7.94477927777242
H          -1.07737258810082   -0.47572470124745   -7.61628338281430
H           0.58588050695421   -3.38773795757138   -4.53453716912440
H           7.52849569257982   -7.19776943560347   -5.00569601920308
H          12.12337431840737   -8.13663401780994   -4.56818183276473
H          11.65974160899797  -10.51029174126660   -3.65891984682237
H           8.88365319080715  -12.32337041120429   -5.18645938847742
H           8.21811989031887  -11.63223232605051   -3.71025258207806
H           9.83375218564527  -12.35782925014127   -3.69277335857876
H           8.56271797864224   -2.02014235415234   -7.62917460351911
H           8.70173354368326   -0.36660172579038   -9.61124317488381
H           9.80308608377540   -0.11934208100954  -11.95263043188380
H          10.07559455618615   -1.68420899100187  -12.73631845268395
H          11.41318033471969   -0.85737738175839  -11.94512693476860
H          12.66519428029211   -3.99041973892048   -8.76571831306830
H          15.30939737819803   -6.72040040547557   -7.79230188874045
H          16.56963376617639   -1.02530006858917  -10.63649876766984
H          19.85701945014601   -4.09225667384857   -9.96164326932534
