89
 SCF done       -196.312163860870          0.000517462795
C          15.59195798314194   -4.77429923609421   -9.00190246155414
C          16.23049237524414   -4.64340580946649  -10.19813877550699
S          17.87289210423208   -4.17287991489633   -9.96889198200297
C          17.70803904671272   -4.14941878809963   -8.25320881069824
C          16.44539394168574   -4.48921420007287   -7.88933180633539
C          15.69807108764148   -4.64706702422467   -6.63715144672980
O          16.12270551966050   -4.48243317143272   -5.51508524280261
C          14.32112063627960   -5.04335174048075   -7.05469838148116
C          14.27529949213528   -5.12516651054680   -8.51090228978066
C          13.22380736324240   -5.46495214534945   -9.32267396251498
C          13.36670242522622   -5.48417115595905  -10.72688326900745
N          13.45966742089230   -5.50457753786521  -11.87026147880669
C          11.92228283318491   -5.82648532950972   -8.92361750492491
N          10.84172117409485   -6.13295548610421   -8.68136206658715
C          13.22934757501833   -5.28151918105036   -6.26574937848742
C          13.04437164460859   -5.24906349948273   -4.86901498161792
C          13.89718510384828   -5.00484163940577   -3.79727538346228
C          13.23747818333055   -5.06775356948142   -2.57909293982273
C          11.85751884606821   -5.36283479159431   -2.70693205528194
S          11.38837366821762   -5.57069946160198   -4.32576366799256
C          11.27288958922953   -5.37582434342472   -1.42330922551878
C          12.27849591715513   -5.09013385934422   -0.47327483329773
C          13.54161804735396   -4.88645559156236   -1.16839846006663
C          14.73981900495295   -4.56882649665291   -0.60260602299703
C          15.92879301395375   -4.39368606842686   -1.34477769844534
N          16.91288199167171   -4.25029691544154   -1.91380770030638
C          14.87040887272716   -4.37330966298322    0.79069338654260
N          14.97442327307817   -4.19447751147364    1.91803987788507
C          11.79697378030172   -5.06288841228991    0.82645827566265
C          10.42898209983423   -5.31429038581827    0.88296783105983
S           9.73698975249196   -5.59551022302328   -0.70895488800056
C           9.58034156627040   -5.31467814667025    2.02082244886502
C          10.02906025324746   -5.14975659411328    3.35677083874264
C           9.09248385885849   -5.02847117725593    4.44616906236132
N           9.54063634810493   -4.82186268021846    5.68969040706671
C          10.82802285196597   -4.77077579615122    5.92620403013139
C          11.75920213248572   -4.95534491093801    4.85321585307941
N          11.34265598616784   -5.12216126042107    3.62255823155690
C          13.15067853492084   -4.98088268405930    5.13106721501891
N          14.25985439789807   -5.00956354117465    5.41223439619233
C          11.27928836798392   -4.54524538002826    7.25033718571917
N          11.66551094914126   -4.36427540178112    8.31298304307982
C           7.68848821604989   -5.10286077452750    4.27920124552847
C           7.24903984335185   -5.35814003088254    2.96089419141368
C           8.18244025559867   -5.45659680293580    1.86762885889000
N           7.56023302734985   -5.67941624209379    0.70933384695756
S           5.97642771617081   -5.76462152784410    0.96218554699591
N           5.99232256442435   -5.51659032901838    2.54300863655184
C           6.80816299761863   -4.89734716785246    5.36944432750446
C           5.41684878353228   -4.92606081214656    5.32466469431173
C           4.85388823093429   -4.62355256619576    6.55341594342243
C           5.82207749782163   -4.36356565066922    7.55006965909247
S           7.42510044736139   -4.50861164263265    6.96601787228110
C           5.14653136502582   -4.03075380127000    8.74408120479901
C           3.75040728016491   -4.07467423940418    8.50735692801248
C           3.52596281004918   -4.47557562642145    7.12882580902982
C           2.33299117488421   -4.68884584826406    6.50465731197344
C           2.25929321980102   -5.06443788623575    5.14566382895163
N           2.19198317025400   -5.36358623686263    4.04088475717060
C           1.08959072869073   -4.58069795453408    7.16575944931997
N           0.06746368202376   -4.52527591950077    7.68100458125912
C           2.99650979866665   -3.69676260496493    9.60768464470808
C           3.79283430459146   -3.36442080684807   10.69814094349774
S           5.51418188894191   -3.56200179669501   10.33577604659107
C           3.47887069089033   -2.94643282868849   12.00798280463512
C           2.30896296443090   -2.47204108239520   12.53354597457469
C           1.08390947182558   -2.05138681238361   11.78950240163715
O           0.86543317110194   -2.13725617172668   10.60163912470728
C           0.21500797172236   -1.44450237072008   12.80368268408077
C          -1.00658887005762   -0.85353249387812   12.83653440226638
S          -1.39963759386376   -0.35858380252962   14.44009441589693
C           0.09154550048734   -0.95003449032726   15.07157162684017
C           0.85052029469701   -1.50236126661668   14.08478592302294
C           2.13626161369137   -2.15399794055773   13.94544512907810
C           2.97314625461729   -2.43973986291969   14.99256808452062
C           2.64353128823947   -2.05924161394212   16.31095464775131
N           2.39247799781734   -1.75170025267232   17.38739397053738
C           4.19803476055207   -3.13166574116597   14.92046349288626
N           5.19639559987797   -3.69930985112481   14.93650886973523
H          15.85866364320928   -4.78744576900902  -11.19265038912700
H          18.54172570908264   -3.89036049026282   -7.63191070112772
H          12.31835724485862   -5.53427023380753   -6.79646234302313
H          14.94250591638213   -4.78899374165261   -3.93266145134901
H          12.38011305296706   -4.86967559559954    1.70731867862771
H           4.88132447402773   -5.15137561803109    4.42085070107578
H           1.92373088724581   -3.64533752295951    9.63290713913234
H           4.32351546982281   -2.99482957434044   12.68611858054057
H          -1.69454991470957   -0.68272855704423   12.03297693989631
H           0.29972438243740   -0.84423281110205   16.11731359731904
