87
 SCF done       -195.744049052689          0.000717055115
C          11.88901316220649   -1.21282014222180   -9.15870569827437
C          11.72202458311838   -0.82407755044960  -10.45231005265569
S          10.04720075247415   -0.68325712824260  -10.84049115283831
C           9.56079823737697   -1.15018272381832   -9.25434487448126
C          10.64407602709658   -1.39919066930266   -8.47466247135558
C          10.90958433348391   -1.81706455602904   -7.09700470545899
O          10.09176773672118   -2.06732870574556   -6.22922347754523
C          12.37869623511007   -1.87173951681069   -6.97463563773203
C          12.97985447370056   -1.50176631855580   -8.24723403345590
C          14.30584639408559   -1.42871808781769   -8.58332762078695
C          14.70677724551414   -1.05346362802623   -9.88323639139461
N          15.04674773070686   -0.75047694746182  -10.93622924343222
C          15.39750632374412   -1.70338689626239   -7.73647029174888
N          16.33046569434722   -1.91267706738327   -7.10058146646912
C          13.07284996565162   -2.21336462417779   -5.84304532350034
C          12.61579210904972   -2.60067947303209   -4.57316846598049
C          13.50601906748133   -2.92130690611835   -3.53900795890018
C          12.85715323784131   -3.29231969801613   -2.37846961792984
C          11.44701240213053   -3.25803174109533   -2.51886442958453
S          10.93518605947291   -2.76706206065290   -4.06812473260189
C          10.87266803273141   -3.66114528921982   -1.29301049084756
C          11.90825663777150   -3.95026385828169   -0.37645440635616
C          13.18811238881320   -3.73175670837696   -1.03091937335389
C          14.43102458816088   -3.91637515065765   -0.50317603135785
C          15.60609403175252   -3.67067798273023   -1.24600061992859
N          16.56393779958406   -3.47100075278633   -1.84334491976194
C          14.63461800693640   -4.37799146436302    0.81565943143660
N          14.81687395672098   -4.76262029532196    1.87963957752597
C          11.43528598214636   -4.36141118346114    0.86144453273637
C          10.04529021266471   -4.39843005814612    0.90438748867158
S           9.32252223823222   -3.91125602865638   -0.62474596345300
C           9.19641894086614   -4.78888266621406    1.97649977419979
C           9.64188059662994   -5.14292965072799    3.27564458979027
C           8.74174522026804   -5.59193868370577    4.30413851718833
N           9.24125737637402   -5.91429552246333    5.51693054868275
C          10.50882916998806   -5.80909933763950    5.74312723356864
C          11.39607137696891   -5.35445251707831    4.73099936482691
N          10.95936290874372   -5.04358519742455    3.55562519659701
F          12.69462585509782   -5.22696620927342    4.96430805611756
F          10.95281363789524   -6.13116408621909    6.94964061163736
C           7.34413960287927   -5.70713368660071    4.09311012755631
C           6.89979849277119   -5.30503865548351    2.81467165545407
C           7.79887953755124   -4.85767256808939    1.78700030572463
N           7.14613356891577   -4.54120039725688    0.66769259382113
S           5.57376439444812   -4.77559931762306    0.88012181396648
N           5.63291080387187   -5.29442804780814    2.39736714771035
C           6.41336410566105   -6.19645697600445    5.05061192472335
C           6.65186283597011   -6.68115939810032    6.33279627605733
C           5.48740102035581   -7.10477289651159    6.95691969008969
C           4.34133250165232   -6.93834327088375    6.14878318876723
S           4.70783029561654   -6.26230419449565    4.62414299255029
C           3.21934831366532   -7.41249970031766    6.86162494901249
C           3.64943473480265   -7.89018361709476    8.12257176657325
C           5.08604185053045   -7.68928215448368    8.22847525571425
C           5.88361124593759   -7.96804595366564    9.29738814380785
C           7.27724950749457   -7.73831004305657    9.28030028849873
N           8.41017171569552   -7.56557502732820    9.28108040310357
C           5.38226157465671   -8.48168379905300   10.51413585853447
N           5.00025530953616   -8.87345350576806   11.52103067409254
C           2.62167987709798   -8.42837182953729    8.88263813069557
C           1.39678494501843   -8.36480193424178    8.22787139850349
S           1.54420737209746   -7.59411969906079    6.64049505948830
C           0.09524207972663   -8.74991434286810    8.60774236187883
C          -0.33355479215794   -9.55775040894221    9.62477443430950
C           0.49776653012426  -10.45288602633816   10.48276024355072
O           1.70374241116600  -10.55808492614403   10.50310807213370
C          -0.46974016120008  -11.23655092395763   11.25982866563115
C          -0.42640186607846  -12.22184323103605   12.19214683158078
S          -2.01889930502859  -12.67543252178959   12.67231707914247
C          -2.74904850788409  -11.53163213790152   11.60876025501413
C          -1.80150085686914  -10.83666900558671   10.92040902110315
C          -1.74021401900405   -9.78365706747904    9.92817431215533
C          -2.83572682877952   -9.12083031307286    9.43810090144657
C          -4.14006535543890   -9.46838262426266    9.84884970214621
N          -5.20808912565353   -9.74036042718279   10.16805935175420
C          -2.82582879473437   -8.04849724262588    8.52518675027076
N          -2.89172130000043   -7.16496828170193    7.79383770103274
H          12.45593362510111   -0.61063889715850  -11.20330064509854
H           8.52069209737779   -1.20984831695344   -9.00364811425790
H          14.15430553648500   -2.19387655011628   -5.91325201118885
H          14.57302562407904   -2.87560524082115   -3.66860413563726
H          12.04075819986008   -4.62867323857134    1.70661460338232
H           7.63782738740969   -6.71367607119091    6.75607854627931
H           2.73597630339813   -8.85945391680881    9.86005336043710
H          -0.67574816668614   -8.34502803119491    7.96171140324482
H           0.42731159196877  -12.70232865539408   12.62625323793172
H          -3.81722664281416  -11.45857784474034   11.56639295610733
