87
 SCF done       -187.290379478275          0.000715139654
C          -0.93814722042452    1.53612358294279    1.72344520185931
C          -2.09235591022039    2.25717946454565    1.77421172671519
S          -3.08342907178086    1.73751750229730    3.08597694635485
C          -1.94219661792353    0.54104492373747    3.57518850782058
C          -0.85793039373666    0.55241628271081    2.75944248786480
C           0.40629654353927   -0.18444736454970    2.64678969877331
O           0.79737195135243   -1.06671204493392    3.37897289000841
C           1.10238894980197    0.41853395973629    1.47418822982612
C           0.25777931665633    1.46328825669218    0.90914004952924
C           0.47639197100632    2.24108608134930   -0.19912019270571
C          -0.46714564078667    3.20847432412506   -0.60531102475783
N          -1.22053642297778    4.00191512514073   -0.95110489389491
C           1.59035284724171    2.19557282666971   -1.05942325408164
N           2.46001485549745    2.21341902858609   -1.81022179173028
C           2.35627353870215    0.13897023168441    1.00072983870845
C           3.29329015542524   -0.85039603764002    1.35452669283916
C           3.23308163518363   -1.95983287047131    2.19183497674936
C           4.41809518024663   -2.67926223242070    2.19417203055510
C           5.41394676565786   -2.11903931097734    1.35557552838044
S           4.87160421039060   -0.72249380133909    0.55597733643217
C           6.58170646686716   -2.90595837335641    1.44545554034081
C           6.33058859204951   -3.97148856038864    2.33746362782975
C           4.96325207861599   -3.86984346051496    2.82539801672881
C           4.33526341348186   -4.72921760161072    3.67718079123086
C           2.98694109140439   -4.58420194481569    4.07173324887313
N           1.89168707996758   -4.50984271843024    4.40081218056773
C           4.99197203126937   -5.85589592093404    4.21850090040494
N           5.51507685330726   -6.77314365710157    4.66563890732246
C           7.42408504022237   -4.80803296684743    2.49853429899745
C           8.51497575865904   -4.39570369200412    1.73988284181844
S           8.16865965797818   -2.94425169174918    0.81020046791336
C           9.79795919077054   -4.99828168923876    1.65034121463263
C          10.18463758066114   -6.16761811309529    2.35999305902360
C          11.49832749933847   -6.72041699174138    2.21301570529291
N          11.84132102620741   -7.82680072614248    2.89682141293737
C          10.97127161906674   -8.38802662049521    3.68829067538272
C           9.67818707176368   -7.84610369533088    3.83092124399090
N           9.31054579339786   -6.77483743176653    3.18550165747897
C          12.48832284990984   -6.16420457574523    1.36567824877581
C          12.10828403206816   -4.99998701354357    0.66588522317343
C          10.78889452244718   -4.43907430818922    0.81553608497644
N          10.63361825192338   -3.34238711230847    0.07029805457596
S          11.99387780904180   -3.04676617770756   -0.72975908610111
N          12.84921864673181   -4.28261277362807   -0.18184534434717
C          13.76304240244846   -6.77061315112263    1.24584025176512
C          14.80891201971519   -6.35122218026634    0.42984305027940
C          15.91351521859800   -7.18175468022377    0.53718193272858
C          15.71304215329889   -8.24105157009688    1.44966761440989
S          14.15407635897097   -8.20984170934891    2.16602829402499
C          16.88617890089769   -9.02558520339451    1.47503953913251
C          17.82920805473314   -8.47375181033906    0.57317122199752
C          17.24992905373673   -7.28445761124463   -0.02871517874390
C          17.83204788154951   -6.43065842521136   -0.91787462226245
C          17.14814762111292   -5.30795167944722   -1.43252747466780
N          16.59946064165522   -4.39562754593427   -1.85841122608093
C          19.16016924589470   -6.58089617646428   -1.37361496515886
N          20.24220956011884   -6.66280616404146   -1.74217465311365
C          19.00513664792848   -9.20350176663407    0.49511563135746
C          18.99146976451871  -10.31226257723382    1.33478236998589
S          17.47629357985452  -10.41934812339180    2.24719370682237
C          19.95291109932375  -11.30195394317337    1.61642767459009
C          21.10590568438568  -11.63880934811954    0.96003906187900
C          21.54188544108847  -11.19025835510907   -0.39424608176954
O          21.00744400978169  -10.38374216254675   -1.12274184203502
C          22.73571161277627  -11.99090419218468   -0.69201116728126
C          23.61165495376940  -12.11967553837430   -1.72029044364597
S          24.80942704248407  -13.30499649264586   -1.35432768043067
C          24.12421035791014  -13.63094842884272    0.19429426692053
C          23.02483163320506  -12.85712481852259    0.41003553839118
C          22.04176436462098  -12.64011711260916    1.45138203075215
C          22.06911909027605  -13.25563073379496    2.67646725242265
C          23.06337997424192  -14.20578326555083    2.99087390354176
N          23.86114717876469  -14.98526865181115    3.26081325617198
C          21.18077856599816  -13.03235199637410    3.74597695029249
N          20.50289090904163  -12.89228341643538    4.66272501625624
H          -2.43153084923739    3.05313880652727    1.14224112660008
H          -2.14417733800793   -0.08645884301201    4.41988039440651
H           2.71384441966304    0.78920556874400    0.21026968746587
H           2.35705200190124   -2.20010104375861    2.76738349152627
H           7.46985933338108   -5.67998531437713    3.12370289523728
H          11.28838450368029   -9.27413084568408    4.21886684209162
H           8.93876840839004   -8.29474975435483    4.47909120633868
H          14.72717351297975   -5.48313024588890   -0.19796361068792
H          19.83899460345681   -8.96616284827087   -0.13947035054423
H          19.71243879652712  -11.89458937489877    2.49201758111916
H          23.63422264782322  -11.59895225023534   -2.65645589515516
H          24.57789833664980  -14.36771513527231    0.82625344608536
