79
 SCF done       -162.505229383448          0.000583279948
C          -1.64187659794920    0.30510636789403   -5.22849045626095
N          -0.66248515455234    1.08905483319567   -4.80971625258374
C          -0.41725552277787    1.07742101866607   -3.50700134432538
C          -1.14053777557318    0.29300808109868   -2.62668855502440
C          -2.15875811751505   -0.49959772572479   -3.17355709928733
N          -2.39582989774005   -0.47950846170749   -4.49175374156141
C          -2.97809394568064   -1.34977738981797   -2.34147956358821
C          -3.96555367050900   -2.11411103597985   -2.85100105933546
C          -4.82226866536769   -2.96228095089176   -2.09778631889237
C          -4.84525093581378   -3.19789767860750   -0.73244897799362
C          -5.85299881874146   -4.08719387908400   -0.36967739736419
C          -6.60997372462592   -4.53922740867348   -1.47045831239928
S          -6.07161110434462   -3.86672296649778   -2.94135894926602
C          -7.61484622207907   -5.41878161635031   -1.00409812495918
C          -7.49307242313309   -5.52407101917175    0.39833300178819
C          -6.38244646392571   -4.69575829263305    0.83970297231718
C          -5.93600105544696   -4.52196160562914    2.11700157635433
C          -6.53489978084295   -5.16585944212307    3.22054369165925
N          -7.01410336142848   -5.68286280089422    4.12484006314971
C          -4.84282249605503   -3.68297720580273    2.41828734073765
N          -3.95432175125545   -2.99971087222633    2.66082817844638
C          -8.45089473249464   -6.35480540490959    0.96082688819695
C          -9.30616300747696   -6.88607696008211    0.00164482685085
S          -8.90629222716075   -6.35202270037608   -1.62470220484183
C         -10.41351236773615   -7.74140338421759    0.22736166533834
C         -11.21103981323591   -8.19820874335525   -0.84563472157854
C         -12.37519907798742   -9.02322239925538   -0.64647514454765
N         -13.09201686825170   -9.41707725713991   -1.70361501942524
C         -12.73498448284848   -9.05439104050861   -2.91243915283956
C         -11.57854995859033   -8.23289545720051   -3.11051129372080
N         -10.86399225966438   -7.83578018996012   -2.08471847410550
C         -11.19095995613751   -7.83989803739841   -4.41491887532609
N         -10.89965554269488   -7.53546104008745   -5.48003578236603
C         -13.50537963243176   -9.48406272620803   -4.02069096937956
N         -14.10674199061129   -9.81513894022606   -4.93750513858938
C         -12.80398378498342   -9.42911301352357    0.63772562832114
C         -11.98658192249173   -9.00382223843413    1.71286762259024
C         -10.81592261983753   -8.17876764576089    1.51210188289977
N         -10.21151479324097   -7.90159106478796    2.66755883934073
S         -11.01101363387588   -8.59473947360607    3.87153221360637
N         -12.16955987120344   -9.28256747551922    3.00358165107934
C         -13.98877795934914  -10.18774245615058    0.80796551472034
C         -14.54527980417171  -10.60919237648945    2.01128127014991
C         -15.73270873536677  -11.29927189192126    1.81924262651758
C         -16.08643972479799  -11.41362930225821    0.45805747055799
S         -14.95453661402247  -10.66668183688836   -0.58104083149898
C         -17.31411249246964  -12.11622328793167    0.37465688515222
C         -17.73707934318110  -12.44172200608066    1.68028956103338
C         -16.75849248347464  -11.94096233737890    2.62852507069360
C         -16.79471265051110  -12.03822015097451    3.98887662174540
C         -17.85300124234644  -12.67814723051693    4.66805636299227
N         -18.70917270312861  -13.19560256783776    5.22849760762240
C         -15.78054053703740  -11.50204193047873    4.81027218587021
N         -14.96377495925385  -11.06756246936860    5.48792094586942
C         -18.95270088750407  -13.12699928940483    1.69395437023956
C         -19.43677587882020  -13.31536116610684    0.41765958261448
S         -18.40538175274436  -12.65495923939814   -0.82223304089568
C         -20.65935192562693  -13.96618758915332    0.02143007041479
N         -20.90042979579885  -14.02719618396697   -1.29001547589521
C         -22.02224316832717  -14.61737545688970   -1.65870318212506
C         -22.91359496003580  -15.14924782340753   -0.74163708577128
C         -22.57431329438178  -15.03838939281727    0.61325589976769
N         -21.44154719097122  -14.44403108918873    0.98067082201692
C         -23.44469667048184  -15.56438229434724    1.65675424295208
C         -23.15835516186797  -15.47669461198645    2.95006940955000
H          -1.84607686066866    0.31238038108190   -6.29197042425074
H           0.38600974691619    1.72054756380090   -3.17045571222264
H          -0.93523692170131    0.28863506154636   -1.56820847129348
H          -2.76136419371161   -1.33843892625710   -1.28321624934629
H          -4.12756200398340   -2.07725869059727   -3.91990189134616
H          -4.16030660508053   -2.73832459439595   -0.04436929200845
H          -8.55729570528564   -6.58246050549511    2.00547840953607
H         -14.08051446807448  -10.39930417831154    2.95700838355550
H         -19.47571971313250  -13.47672622405578    2.56446446532280
H         -22.20410842414181  -14.65982104993483   -2.72508340915029
H         -23.82784757639161  -15.62711553057381   -1.05365102157651
H         -24.35350978455486  -16.03809187854550    1.31051460496850
H         -22.24883178223296  -15.00216548777150    3.27638473941342
H         -23.81362974401255  -15.87115671605788    3.70715385101328
