77
 SCF done       -161.925691809129          0.000536608973
C          -2.46043465009865    2.55758580511989    2.13998016940638
N          -1.56815253435550    3.22251808199099    1.42526016923177
C          -1.38391132232677    2.80352721906365    0.18093484804257
C          -2.08040805341754    1.73240416142034   -0.34853637117679
C          -3.00266698887815    1.09677960777527    0.49376720567470
N          -3.18013114871630    1.53028354598582    1.74909289887301
C          -3.78149042743390   -0.03290584812898    0.04277647770989
C          -4.67039372085355   -0.65117120077673    0.84652038894671
C          -5.47680638260431   -1.76560735703212    0.48863799312479
C          -5.53702882664345   -2.46368432903809   -0.70579547298446
C          -6.46667374097562   -3.50052962343370   -0.66348522897312
C          -7.12474724142553   -3.59726212998200    0.57825930618515
S          -6.59279141569200   -2.41349142111411    1.68337153363559
C          -8.05237489134814   -4.66448020379530    0.52105442060835
C          -7.98265792100201   -5.24639486759685   -0.76158438291755
C          -6.97555656510788   -4.54298092701172   -1.54128609231308
C          -6.57407824206032   -4.81072158514768   -2.81665391846809
C          -7.10812901771758   -5.87230472226069   -3.57866535413794
N          -7.51933177316345   -6.73489947150301   -4.21137681362495
C          -5.57665634228296   -4.04748867563605   -3.45940432603130
N          -4.76518145781097   -3.42668362440898   -3.98016568862065
C          -8.87633521041478   -6.29683882236236   -0.92721173796354
C          -9.62674096699876   -6.53197322943517    0.21826809073876
S          -9.19979354323377   -5.43074551206365    1.52449529321863
C         -10.64465046799481   -7.50069564362101    0.44057646688824
C         -11.16831866863190   -8.36691882487040   -0.55096318844038
C         -12.20593917873037   -9.32412136481733   -0.26878809160453
N         -12.63169459205338  -10.13889833582740   -1.25823202522643
C         -12.12671194888745  -10.03555415205543   -2.44267048175144
C         -11.13346210341027   -9.06321599968328   -2.73094895826914
N         -10.68384830336966   -8.27818679925167   -1.80879436304229
F         -10.63699836537798   -8.93051749014987   -3.95488048645396
F         -12.56263009706508  -10.87015502397624   -3.37834918095436
C         -12.78784826848375   -9.45769106351174    1.01661647648314
C         -12.25219967238751   -8.60367114104354    2.00510191985029
C         -11.21695289696647   -7.64697551470119    1.72288095105061
N         -10.88426200585292   -6.94786194592631    2.80876846885495
S         -11.77314975280865   -7.43883056245298    4.05272092984742
N         -12.62669985040316   -8.55959346738626    3.28421382931544
C         -13.83359706788783  -10.36505280308213    1.34289841500436
C         -14.57871373318715  -11.17873658786173    0.49812870008423
C         -15.52043067279105  -11.92841535449244    1.19065647023947
C         -15.49304589596662  -11.69723286181831    2.58100010158770
S         -14.32627428158423  -10.53572942503753    3.02518465665208
C         -16.47428832637357  -12.51845732740342    3.19228701520802
C         -17.12178241576017  -13.26570225482232    2.18865279026724
C         -16.55366569513615  -12.91211415662693    0.89953093760246
C         -16.92656905869186  -13.38643294685017   -0.32342249396542
C         -17.95178732131672  -14.34431895294747   -0.47420728844175
N         -18.78266325470155  -15.12344633914464   -0.60636973548509
C         -16.33333322434115  -12.94472492317692   -1.52565641377813
N         -15.87586756966546  -12.58944953993351   -2.51485770277070
C         -18.10728923682445  -14.11111040663273    2.70119820505174
C         -18.19915041388788  -14.00409998197492    4.07125969603895
S         -17.07599231259893  -12.85838006898447    4.75367613461737
C         -19.08906598476664  -14.71424385613172    4.95318424029018
N         -18.98173565450259  -14.44337598385343    6.25597051649203
C         -19.79646331785418  -15.09586359725381    7.06443465767714
C         -20.72080571411196  -16.01613188381321    6.59925432421481
C         -20.76064655182967  -16.23302727255054    5.21553614750715
N         -19.93733181671159  -15.57449316465801    4.40395490538938
C         -21.69785807604457  -17.17926506558591    4.62428798820474
C         -21.76446244510797  -17.41237571071363    3.31904191513317
H          -2.61543163049517    2.89680364749289    3.15682983534203
H          -0.65222016498866    3.35121926547345   -0.39952723533015
H          -1.92427408120742    1.39781336609363   -1.36154840151901
H          -3.61511990594481   -0.35801656422415   -0.97377064528702
H          -4.78499512020704   -0.26799023763132    1.85167015215764
H          -4.93110664875026   -2.22114587706644   -1.55892201220399
H          -9.00119632323458   -6.87770099213980   -1.82119099384540
H         -14.41811564569504  -11.20138734833215   -0.56291752860994
H         -18.73272641468064  -14.77530553847020    2.13448795956003
H         -19.69766058190755  -14.86691248889623    8.11805062312365
H         -21.38082544652724  -16.54281833914742    7.26895243487867
H         -22.34774219482117  -17.68933931491065    5.32265447702270
H         -21.11015527540883  -16.89535666345017    2.63841080092962
H         -22.46404196774813  -18.11489999064867    2.90039067655697
