77
 SCF done       -153.476696169084          0.000759857564
C          -2.28427481737223    2.26368115230841    3.21172198984370
N          -1.12659316598464    2.70471624760101    2.74860179184316
C          -0.62575222089314    2.05299630549071    1.70787781800654
C          -1.26955336217752    0.97255078629416    1.13343840057639
C          -2.49071452573120    0.58505513755580    1.70239232922198
N          -2.98679864918197    1.25248986873323    2.75314059547769
C          -3.24026395775652   -0.53465628523442    1.18399636091510
C          -4.41128916298211   -0.92452539984329    1.72780800714596
C          -5.20194159508441   -2.02064539899586    1.28850543690319
C          -4.97687490792063   -2.90942193826479    0.25145703186983
C          -5.98734806133559   -3.86291051056598    0.14529096443964
C          -6.99958713601347   -3.70160870468015    1.11265800119842
S          -6.69883758921157   -2.37758049689738    2.14267027637907
C          -7.97250031719558   -4.71387582233594    0.93008606433799
C          -7.57273561881297   -5.51825584654548   -0.15647200097413
C          -6.31605075475829   -5.01028494262764   -0.68336099456759
C          -5.59776753996406   -5.50895936781869   -1.73107949490562
C          -6.01526289208324   -6.63921493638920   -2.46469004835567
N          -6.34008089656085   -7.55647339785637   -3.07122260876710
C          -4.38439715618164   -4.92549334794836   -2.15073362593450
N          -3.39727433224946   -4.45239573555325   -2.49312280506566
C          -8.46102342362845   -6.55148013813912   -0.42076701044958
C          -9.54083059038556   -6.54931841139161    0.45328689600663
S          -9.44459111672263   -5.23672351701331    1.62173160317378
C         -10.64196427749968   -7.44652359526273    0.49351768890492
C         -10.81782446952654   -8.53653529061808   -0.39978096145764
C         -11.95563519588505   -9.40299823260823   -0.29519485661849
N         -12.09670440061313  -10.43023772265071   -1.15177189025658
C         -11.19598824828459  -10.62738098842076   -2.07276552930785
C         -10.08000470967926   -9.77404121783755   -2.17815483425020
N          -9.90774490084262   -8.76922793833927   -1.36552382199642
C         -12.97113452209077   -9.24249373999058    0.67895974018040
C         -12.79778364203213   -8.15983461149577    1.56632863275939
C         -11.65286224010757   -7.28884905987577    1.46503168459787
N         -11.67795917347575   -6.33234448568249    2.39571834837340
S         -12.99474763838199   -6.50688509029256    3.29972532154179
N         -13.60144525700115   -7.79428882810454    2.56737449181659
C         -14.07611982211019  -10.12842810041483    0.72892582408887
C         -15.14456545638259  -10.08062179917463    1.61630251276702
C         -16.05710546014161  -11.10008798845007    1.38293463301921
C         -15.68180273702083  -11.93493651153980    0.31126710326695
S         -14.20390636513520  -11.45700924532778   -0.41031935974190
C         -16.67713650173188  -12.93404988574549    0.16022718031148
C         -17.67750390884732  -12.72821915960042    1.13164499530213
C         -17.32063289772271  -11.57060871151119    1.93125873381182
C         -18.01953515123667  -11.03378650517681    2.97320505036526
C         -19.24240563051678  -11.57859069235113    3.41758625089650
N         -20.23745635355082  -12.01333652209511    3.78653348409282
C         -17.57070983345619   -9.89742136668265    3.67822368508340
N         -17.21951494163886   -8.97417603132061    4.26111820804388
C         -18.70472782948900  -13.67016820952782    1.05270149054416
C         -18.48147281003973  -14.57445703434335    0.03817178896698
S         -17.00128513020345  -14.28033364841241   -0.83742397292444
C         -19.30800236133525  -15.68613373795733   -0.35269002778215
N         -18.85814509348250  -16.44113984751656   -1.35817739938136
C         -19.61427338457459  -17.46243593547676   -1.71533435026245
C         -20.81676875648909  -17.74787298586186   -1.09039397016286
C         -21.20844389070032  -16.89701358752550   -0.04845027590900
N         -20.44278050643495  -15.87016270671085    0.31105626862052
C         -22.45942368492421  -17.10573224144483    0.66935761884968
C         -22.87005782994832  -16.31376712742115    1.65246559257028
H          -2.69848941799509    2.79376604731745    4.06077598273368
H           0.32241486347536    2.41745404437600    1.33299118732023
H          -0.85515818863095    0.44762892072761    0.28761574905529
H          -2.81113155085956   -1.05010772684256    0.33716760262989
H          -4.78215052940069   -0.36119606733965    2.57359475832028
H          -4.11645159367782   -2.85904112719685   -0.38967563363279
H          -8.36434436433597   -7.28722682921736   -1.19690893929667
H         -11.34883480899924  -11.46444681995076   -2.73875187338993
H          -9.32142731298878   -9.91567559517112   -2.93518527024873
H         -15.21883073532183   -9.32686455220091    2.37841072493842
H         -19.57274525632578  -13.71776213104407    1.68352501138229
H         -19.23586473184097  -18.06659686496712   -2.53036980818818
H         -21.42588286191677  -18.58476202422098   -1.39083712998284
H         -23.04486549760189  -17.95672847725173    0.34759436200050
H         -22.27419008004937  -15.47102764815063    1.95833851938420
H         -23.79800913080160  -16.48222806599730    2.17083469992128
