83
 SCF done       -168.504302021711          0.000942738110
C           5.62446864197232    0.59424933178926    9.19925168651278
C           6.34932398569686   -0.10941837163572   10.11427360467496
S           6.95637779507979   -1.61367352345019    9.51760087622668
C           6.24085516599648   -1.30188441362152    7.99381719482764
C           5.55973845900313   -0.09047033999097    7.97335917120470
C           4.95628718591179    0.09495496112759    6.64817480658200
O           4.25012298022097    0.99153600156245    6.25134753897009
C           5.45457940934768   -1.07069666433644    5.84274693474596
C           6.09877981015331   -2.00661779354243    6.74916122988633
C           6.34990499800478   -3.33985121425148    6.55980704785772
C           7.01422771294010   -4.09720454610597    7.54473403220564
N           7.59113277829021   -4.70275465271765    8.33082811055808
C           5.92180586692390   -4.07472979690596    5.43807615262290
N           5.54135330974947   -4.71562430398885    4.56531580952440
C           5.36570876093649   -1.02468382062837    4.49309697683498
C           6.04453653679487   -1.79232409971301    3.49261520967664
C           5.50315082712261   -1.89860588273644    2.21105982647623
C           6.09579301904176   -2.63217258895528    1.19510374676130
C           7.31410377669923   -3.29256202488276    1.35583555358171
C           7.93725351966819   -3.12802027839326    2.61246650275757
C           7.30249303345990   -2.41005907957489    3.67279559899714
N           8.13754009999426   -2.44463721791081    4.72381039909825
N           9.17062403394792   -3.12176869893279    4.29403076578726
N           9.12603134558609   -3.53715773218480    3.06834573112358
C          10.28058388498477   -3.43267710663971    5.13898934769471
C           7.88111467585774   -4.09738410393224    0.32435760633106
C           8.87574020936620   -5.07859395164625    0.41009061774542
C           9.20359174948464   -5.66659218735538   -0.86962588275048
N          10.20807837375226   -6.53614218655626   -0.97397693837832
C          10.80996812257135   -6.91956598003096    0.12424283603851
C          11.86761786613442   -7.94940292662005   -0.00266521374796
O          12.17743301404046   -8.45446307563930   -1.06407989666478
C          12.46125880166849   -8.39176469405139    1.26961763222714
C          12.09670923369244   -7.91469271908931    2.46481352329638
C          11.09296015302343   -6.85405933972765    2.64697927796925
O          10.91130866686668   -6.32137544979521    3.72474790571984
C          10.40182294687392   -6.42442014499181    1.40924486930931
N           9.46190403105311   -5.51961963286528    1.52320125103281
C           8.41676430816507   -5.17626722736191   -1.91887167239210
S           7.33479132367718   -3.96720093803385   -1.31306117746378
C           8.43837343752022   -5.52138076684273   -3.30154455045999
C           7.85881368737065   -4.70385431225354   -4.27568972845877
C           7.91712527209969   -4.97040207984567   -5.63572523605064
C           8.57051605472431   -6.09111970502651   -6.15310164900129
C           9.14740759488251   -6.95156378016384   -5.18481813078308
C           9.06865593476677   -6.69098761799506   -3.78327596928200
N           9.66655311118453   -7.71275146808619   -3.15914083899041
N          10.08499955006933   -8.48200643937565   -4.11674707183129
N           9.81687958114242   -8.10182601871658   -5.33571516038622
C          10.82597882370870   -9.67136799102066   -3.83954363095409
C           8.71638021649759   -6.48604005298683   -7.51732684056479
C           8.30160588441714   -5.96059054333178   -8.70363024491130
C           8.58677531843685   -6.62352966473938   -9.98105745511072
C           9.25620818560603   -7.79375762990703  -10.22974184647464
C           9.41147145461387   -8.25174462250722  -11.55689642941721
N           9.53943519834922   -8.63236734891447  -12.63175267680965
C           9.85154498631634   -8.66594687609431   -9.29616843048421
N          10.36826407985138   -9.44415469464386   -8.62773224190453
C           8.00843801781531   -5.79889775692383  -11.00398507315714
C           7.39216042207442   -4.68294302345321  -10.45991890832481
C           6.81233819450128   -3.84606757030946  -11.42804465891828
C           7.00240528087780   -4.34840461707994  -12.68126107302058
S           7.88202755571144   -5.83476269157406  -12.71378965931727
C           7.53507505603890   -4.71099825517153   -8.99941912559703
O           7.11259007871211   -3.87745970361775   -8.22713535324361
H           5.16157453491917    1.54433461518870    9.39168358199809
H           6.56415662071293    0.16371021485221   11.12893901543487
H           4.71863782855877   -0.23944157457579    4.11168567358751
H           4.55204361852809   -1.42474778263305    2.01780318278109
H           5.58485735088342   -2.71497279824246    0.24667488488840
H          11.06219017498176   -2.67871790944126    5.03146554294251
H          10.66798029730195   -4.40534825093860    4.83417889094850
H           9.94178363617641   -3.45835127969120    6.17251008362191
H          13.22411040034435   -9.15352975066682    1.17885977760633
H          12.55536997249795   -8.27371566136546    3.37643817023757
H           7.35749319547452   -3.80258904369329   -3.95176859019341
H           7.45012723871398   -4.27644765027249   -6.31441001694692
H          11.43653084844248   -9.90820064925956   -4.70781408606674
H          10.14625175416214  -10.50129488151167   -3.63951964422709
H          11.44041483208232   -9.48812852257323   -2.95778666549867
H           9.27495317330129   -7.41345092032638   -7.58926353307797
H           6.28930322005410   -2.93334035693101  -11.21088316875288
H           6.67244791167106   -3.92822415311072  -13.61139970938284
