89
 SCF done       -193.803699829033          0.000562736464
C           3.62652622803379    0.13007617303781  -10.24806919549410
C           2.49261049566278    0.66345770866578   -9.70982621829917
S           2.51527172802846    0.76423868460837   -7.98613799447460
C           4.07473564878802    0.05870951940132   -7.96349350759256
C           4.54268761827733   -0.22043253172260   -9.24237876364945
C           5.88856973687139   -0.79421478948671   -9.14235397350565
O           6.65025867439457   -1.11558306412986  -10.02320684398888
C           6.12389589346217   -0.95319037267236   -7.66723373046450
C           5.05570303694008   -0.26215116741005   -6.95982710446665
C           5.03348056817940    0.21884823126605   -5.67503917535318
C           3.93154329787545    0.96145245271434   -5.19852690143285
N           3.03974427303848    1.57058212720956   -4.81283253332509
C           6.09429868528591    0.11964000641083   -4.75789246075421
N           6.94621053793286    0.08809896179064   -3.98860330826128
C           7.15688298021282   -1.73576981518977   -7.25966123300982
C           7.37918454079957   -2.33926163852289   -5.99987310223313
C           6.46133927482651   -2.62509396328421   -4.99989555325236
C           7.04686618436549   -3.27575691809273   -3.92199650477528
C           8.42784109096462   -3.50295018274026   -4.09934469861952
S           8.98954165613242   -2.92416703212266   -5.59738431173989
C           8.92769117773794   -4.16783424360335   -2.95388519830134
C           7.85969644962921   -4.35297101067242   -2.04751071579744
C           6.65052578938368   -3.78361484921775   -2.62141102115913
C           5.41130649488030   -3.70831968360347   -2.05697115888411
C           4.33246133900854   -3.10216990459497   -2.73505920821996
N           3.46547848663068   -2.61224019583643   -3.30343617484493
C           5.13840303452816   -4.22739009592775   -0.77396489730299
N           4.91706348530331   -4.65961282174585    0.26437654899402
C           8.24286628241379   -5.02327827084281   -0.89438021652636
C           9.59303054921225   -5.35405828196678   -0.92344429597719
S          10.40355545844795   -4.81495131927432   -2.38716813814569
C          10.33398122125802   -6.07331473520315    0.02848589581547
C          11.68570457995105   -6.41192529019931   -0.10142958566245
C          12.17695966867696   -7.20100359195812    0.99006019592270
N          13.44096740526682   -7.61996544218870    1.02803534332152
C          14.21225951422538   -7.27389102663232    0.01857748046832
C          15.62331848252169   -7.73262293310978    0.06238468701844
O          16.06571760924017   -8.39690431677814    0.97548525039509
C          16.44811804565951   -7.32008028833902   -1.08628834099267
C          15.98634931379681   -6.59393002348879   -2.10973807576055
C          14.59628357949802   -6.11840753770827   -2.21322820125186
O          14.19837050099147   -5.47073517076833   -3.15850592585161
C          13.71911937157625   -6.49211791916727   -1.07573788295368
N          12.47128375944273   -6.07449295462820   -1.12278620862695
C          11.20179585979246   -7.46569765063614    1.95866614622542
S           9.69444609840098   -6.72217425794812    1.50970174379808
C          11.39792353587113   -8.25043170013010    3.10702004571218
C          10.48601208746773   -8.54037899046254    4.11568210774793
C          11.03532377976324   -9.38790517498809    5.06769749181836
C          12.37078131362099   -9.74715210094101    4.77694172982557
S          12.95759334518527   -9.02651609277250    3.34340568671687
C          12.82932383046546  -10.63459257232867    5.77926577646950
C          11.78116348746328  -10.83029766659146    6.71093572772003
C          10.62688230821289  -10.04946658572462    6.29655629481475
C           9.41684033110052   -9.95782235149829    6.91838030906324
C           8.37141311906277   -9.16227682768451    6.40315025516636
N           7.52445298468774   -8.51544063917741    5.98044377059582
C           9.12825469735427  -10.65099670416724    8.11333240712260
N           8.88668749178457  -11.21238282879318    9.08302670521150
C          12.13557398623144  -11.70546544467020    7.72052599211589
C          13.43745623066015  -12.19556103509034    7.57021343943026
S          14.22984338398246  -11.53348411213701    6.14284802553500
C          13.98851091438952  -13.11873496035938    8.47900436311355
C          15.20266155310930  -13.74487519260572    8.47737916582988
C          15.65387603614184  -14.71268379549275    9.47170679409122
C          15.02022116424658  -15.16035205449835   10.60180491677311
C          15.63779984582684  -16.11542270815360   11.43799251476665
N          16.13560555931509  -16.89263091488859   12.11917459665758
C          13.75160372752708  -14.75328510360867   11.05727546140622
N          12.72549900659808  -14.46161116238708   11.48193083641529
C          16.95684952787177  -15.14132864856204    9.04027374781884
C          17.33716094313985  -14.50102162861315    7.86801477012575
C          18.60644057577201  -14.89518173530949    7.41350325224553
C          19.15563370972032  -15.82205018573063    8.24981392039245
S          18.15433292153567  -16.23237009870734    9.59583916152691
C          16.26575873012303  -13.58937164169589    7.46004788439802
O          16.24572660696828  -12.85615336190669    6.48875511331795
H           3.79660251174571   -0.00155137605633  -11.30042086508556
H           1.62652401590649    1.01983089656636  -10.23264995324623
H           7.87392143172390   -1.97858583676959   -8.03845310296106
H           5.41177810629952   -2.41216213664372   -5.08794298491071
H           7.59942747661635   -5.27685470982167   -0.07083365361973
H          17.47738568989312   -7.65077514868978   -1.05058669083229
H          16.62705935330936   -6.31400867933598   -2.93505367730825
H           9.48598666342853   -8.14506710136804    4.12588887065412
H          11.50166469067304  -12.00157632255461    8.53770396589344
H          13.31475673882245  -13.36346207537193    9.29220473008576
H          19.08141451135783  -14.51841239369941    6.52682810814700
H          20.11060635715523  -16.30141967628457    8.15710204099183
