89
 SCF done       -196.316051782182          0.000539132694
C          21.55860621861581    3.13558780223397    2.59357753308084
C          21.77348337887725    2.89781469844888    3.91922256170034
S          20.79028220183232    1.63820578207986    4.57400577020852
C          20.04658178073922    1.42344840956313    3.04738083674900
C          20.56229162238518    2.28541001432949    2.08534128690256
C          19.90550433002484    2.01891559678490    0.79944194633782
O          20.11368329156455    2.51336723358409   -0.28199314422047
C          18.84341388958698    1.00932726833454    1.12655247877611
C          19.07707595206118    0.52605830044173    2.48032320536591
C          18.68958372170269   -0.66775470451304    3.03252497136912
C          19.08978058847990   -1.03036702972663    4.33545245338830
N          19.40736343629691   -1.32482662578584    5.39754581022859
C          17.96937409642576   -1.66112707669659    2.34234840651586
N          17.42036335912747   -2.50762013709592    1.79451042938667
C          17.83973769833010    0.78214547111551    0.24376390127597
C          16.55589342724920    0.22302510873708    0.47131761221296
C          15.73343644965915   -0.34907953670420   -0.48580861506760
C          14.50817487818043   -0.74342754091335    0.04119331756701
C          14.37483066695893   -0.42619368590787    1.40990959343538
S          15.76422680933408    0.32558678271684    2.04246865807765
C          13.09676201888078   -0.83047854923251    1.85439071314040
C          12.41849079769667   -1.41913817122210    0.76464300398922
C          13.28328774027515   -1.38480059024894   -0.40546246549410
C          12.99824704719895   -1.85154612029398   -1.65437318490208
C          13.91515475303905   -1.74740783332401   -2.72234231786159
N          14.65259874783181   -1.65674670496188   -3.59521563243492
C          11.76315705904161   -2.46026299348864   -1.96503973490289
N          10.76024890776258   -2.95067947096124   -2.22599420582622
C          11.14199654416304   -1.84614886633670    1.09492527091396
C          10.83520563233717   -1.58495024911501    2.42734183299152
S          12.15595865633396   -0.80462371396367    3.28208910312274
C           9.61460501465305   -1.86936057034642    3.08918161910084
C           9.42583218406687   -1.52589920522654    4.44741117735988
C           8.18973056306273   -1.77364901555263    5.14215117527996
N           8.07386526429615   -1.42130937494448    6.42663442521572
C           9.08017437381269   -0.85309310613877    7.04592486359634
C          10.30851335923293   -0.60175248216405    6.35311065570036
N          10.44004584733020   -0.94180518809580    5.09370846037217
C          11.39390895879818    0.02220710914938    7.01676261774165
N          12.25413123406638    0.53201227491949    7.57490943289051
C           8.93884121950479   -0.48744168043180    8.40768139299252
N           8.85575834133459   -0.17963429825217    9.50753035987350
C           7.07619319595347   -2.37756145930130    4.51369609712324
C           7.26650480175221   -2.73871723612495    3.15823460475299
C           8.50871186003097   -2.48959224490781    2.46068785242156
N           8.44951578245255   -2.91039257898446    1.19669352780956
S           7.00831653048294   -3.54752749683544    0.90907598546470
N           6.37269120922344   -3.32728472432082    2.36254230038269
C           5.86205322290453   -2.58380280787377    5.21556002805012
C           4.69821444269382   -3.15930238537031    4.71407594717874
C           3.68817016384254   -3.19342908031618    5.66263494237288
C           4.08019660306621   -2.63933221067042    6.90221487572859
S           5.69663905003657   -2.08272656900573    6.89153341120031
C           2.98737969314470   -2.71203539092952    7.79517507817076
C           1.89909212140240   -3.31608883560568    7.11765335324921
C           2.30690151901555   -3.63603217423885    5.75876648336461
C           1.55889221945610   -4.21930693689206    4.77917537052997
C           2.07577790022801   -4.47113658071656    3.49026948807815
N           2.48946919929891   -4.67689540841026    2.44091078821820
C           0.21778415474203   -4.60694939991354    4.98656025611937
N          -0.87208617683610   -4.92299466300436    5.14867810300999
C           0.77921623190084   -3.42261758021309    7.92006023756832
C           0.98950389992064   -2.90489342861746    9.20350392346777
S           2.62310528740854   -2.27816762482210    9.40226586202927
C          -0.02698983051007   -2.91014137289521   10.17774932176052
C          -0.02452426156460   -2.44199538584591   11.46097689339805
C          -1.15543082395227   -2.49719067675931   12.38173806164238
C          -2.40772151648125   -3.02134991378618   12.19210544066847
C          -3.36912439762368   -2.96979261307821   13.22465294018099
N          -4.15206036487966   -2.93036803163696   14.06213705283710
C          -2.87731366959475   -3.64351983567302   11.01949766152486
N          -3.31812376464847   -4.16163796818305   10.09449899683563
C          -0.70496881056246   -1.87238509316376   13.59579909024547
C           0.61278267958044   -1.44669258995165   13.48662941777649
C           1.08971116243925   -0.82975714983417   14.65488828111875
C           0.12471783089204   -0.80287808977077   15.61834023173211
S          -1.37006008840306   -1.51947456840702   15.13388730353033
C           1.10768208218662   -1.78314273500152   12.15033329584559
O           2.21524139027660   -1.56890975283340   11.69359980446841
H          22.08459510664501    3.87228117632309    2.01539416479478
H          22.47276240067345    3.39035001119230    4.56640141990120
H          18.01770423768712    1.14707251325021   -0.76387706514531
H          16.04476985636776   -0.49002302730723   -1.50517490808862
H          10.44157166972726   -2.32244053279473    0.43379720050074
H           4.63172422341930   -3.51995458147229    3.70415571612574
H          -0.16238173400862   -3.84810616907514    7.62046944283559
H          -0.94807927757562   -3.35893410848443    9.82377840669123
H           2.08041865428848   -0.43233781879061   14.77450747262547
H           0.20084225940984   -0.39651222578543   16.60799822256793
