87
 SCF done       -195.738342606230          0.001999620238
C          12.60479478825522    7.09282502566913   -2.79922871722235
C          12.53340700833419    7.85296868057210   -1.66918561487995
S          11.39442629489790    7.27545479252352   -0.50712222401779
C          11.00508599231671    5.96518197404280   -1.53790229957827
C          11.72267154125371    6.00176475631962   -2.72817739091311
C          11.31032892898153    4.87270984167505   -3.57254033812773
O          11.65707571965497    4.59231335381939   -4.69402774643812
C          10.38070192375247    4.07833396025559   -2.70315988861258
C          10.06694649386866    4.87593242736882   -1.52579831133191
C           8.96413095480719    4.79686771758988   -0.71419296804541
C           8.77062653072439    5.71212976618371    0.34157446537292
N           8.61698336251616    6.44348304274291    1.21205426165466
C           7.90319506686441    3.89154259326270   -0.90620187493233
N           7.00729447129528    3.19043089872411   -1.06165742991068
C          10.07587930196454    2.79952417572689   -3.03732945810779
C           9.58507319409388    1.75631736970885   -2.21128382650249
C           8.91208089441218    0.62199674249197   -2.63521613868025
C           8.59745003000777   -0.22839938139551   -1.57996689018516
C           9.08006310978372    0.23955798104668   -0.34001164175280
S           9.89529894344111    1.72606425672799   -0.47684008194763
C           8.71224596590908   -0.67377658609089    0.67305490993130
C           7.98176921279359   -1.72282609604555    0.07487693556166
C           7.89592702204883   -1.48174836505414   -1.35774207765964
C           7.28654073245153   -2.26742804913116   -2.29073692091495
C           7.27948604939098   -1.93700021391067   -3.66292148983332
N           7.27932200111203   -1.68025517811267   -4.78023899159000
C           6.63424145667054   -3.47133643527566   -1.94825220290989
N           6.10652098411760   -4.45163080191706   -1.67485168823276
C           7.54035488276299   -2.66044110876998    0.99652237447174
C           7.92977629858598   -2.33977760729864    2.29335421234048
S           8.86865054457121   -0.85973992157512    2.36367769373697
C           7.61086018331665   -3.05525603063494    3.47769398540766
C           8.08835887822711   -2.64372810658361    4.74161574389323
C           7.73219646967938   -3.31488319569694    5.95628409318688
N           8.22221130478860   -2.86101894544500    7.12681508812184
C           9.00684895319340   -1.83261249222960    7.14123918780910
C           9.36192423421568   -1.16930621801263    5.93702433635932
N           8.90763939112675   -1.57510185347886    4.79578912327566
F          10.17279224267716   -0.11767781619531    5.94706136112298
F           9.47063567071259   -1.41876266677476    8.31441143203286
C           6.87085392005296   -4.43385159603429    5.98185906524329
C           6.41543908992709   -4.87482802768113    4.71602288793645
C           6.78093507011096   -4.20207539847390    3.48930029462637
N           6.23025116601329   -4.79368549369798    2.42801279980407
S           5.35783413974764   -6.04890438455073    2.90474908441221
N           5.61983731424543   -5.91901237977052    4.47898889339648
C           6.48081917994786   -5.04447614070169    7.20332831674177
C           5.59781626070040   -6.10902507981503    7.35609332219612
C           5.40511274158406   -6.43772967608655    8.68991231941314
C           6.15525796032036   -5.62207219072468    9.56438067427183
S           7.08806494596986   -4.45208126270023    8.73845871817466
C           5.87983780938409   -6.02398221328328   10.89004398963268
C           4.94531149943652   -7.08640519551652   10.86297708414128
C           4.63558666932804   -7.39195785401840    9.47509590681921
C           3.81878258367616   -8.37365917206591    8.99817090392451
C           3.60915353316194   -8.56087266719476    7.61436589316737
N           3.43682407315792   -8.71402900992126    6.49125092699316
C           3.14326236998517   -9.28952201327025    9.83458474837220
N           2.59738388290899  -10.05888130977910   10.48530508577204
C           4.57964182258986   -7.52350707869186   12.12904469606242
C           5.23175578410658   -6.81884326471283   13.13348851418291
S           6.32781768776045   -5.59716344513909   12.47129017161675
C           5.21713492534356   -6.92162101468301   14.54147902233276
C           4.38911380102521   -7.60304684393583   15.38413029060720
C           4.57382096403862   -7.63296779195137   16.83360342896155
C           5.62792719573407   -7.17622696050551   17.58350784943750
C           5.61614758894358   -7.31095625830791   18.98859947231259
N           5.60891230496592   -7.41967240418954   20.13073761894620
C           6.80232352202616   -6.57206382745826   17.09595981619283
N           7.78813154706561   -6.08498468523503   16.76489772909855
C           3.42163022514607   -8.29970642646238   17.37065554310727
C           2.56177424311658   -8.71091994617077   16.36245047205388
C           1.42218690887024   -9.37232543383922   16.84838586222657
C           1.44705327332990   -9.44732128257229   18.21008385871015
S           2.84232595222646   -8.72553424641267   18.92666534716517
C           3.11553043982495   -8.31574867932155   15.06105555137868
O           2.61820067341110   -8.49893329332311   13.97248273081101
H          13.24700206002287    7.30417716416995   -3.63345588770538
H          13.08610372599371    8.74440954567792   -1.44494054998998
H          10.30497404659135    2.51934522953267   -4.06144487153996
H           8.64089811177980    0.46218161267889   -3.66309280679225
H           6.95901827019234   -3.53709429888166    0.77828548748864
H           5.13628927772353   -6.58907340529851    6.51309720102735
H           3.87064177094753   -8.30442584436078   12.33679336209106
H           6.00006720575186   -6.33951992269507   15.01423983346595
H           0.63759140801196   -9.76822804946843   16.23105028731920
H           0.71533404203914   -9.89541037513742   18.85374606346846
