85
 SCF done       -182.149491966025          0.000536680369
C          -2.67048972886856   -1.13608914784981   -0.03458744993625
C          -2.56496438252843   -0.20065334680059   -1.02162660077209
S          -1.10222819465578   -0.30430220969742   -1.93263415320327
C          -0.59236824159967   -1.62319221792400   -0.96759972968130
C          -1.53305857731233   -1.95961621526317   -0.00013160074670
C          -1.04116152363334   -3.11020991529308    0.76335933782435
O          -1.58274956429636   -3.73270811097659    1.64505252852777
C           0.34875720525606   -3.34548315458765    0.24074388033286
C           0.53454574996497   -2.51766101931156   -0.94448274607102
C           1.42725299033587   -2.66018593607426   -1.97596177800964
C           1.37734894353854   -1.80561461121739   -3.09919478318357
N           1.34150039544971   -1.11699750044813   -4.01543346602970
C           2.38803956730389   -3.68038460179255   -2.08761433688676
N           3.16664660766692   -4.50996618764248   -2.24369233657425
C           1.17644630017472   -4.15440456883342    0.94805675379829
C           2.58744557632726   -4.26593544360585    0.87182510346056
C           3.50358480167916   -3.33002686184630    0.42200906937163
C           4.81233123133607   -3.79125369475848    0.51454768834347
C           4.89867633477796   -5.09018356980325    1.04998666461572
S           3.37318809464073   -5.72506830725006    1.45697851196211
C           6.26509003747022   -5.47957610295401    1.06121300586045
C           7.03026826141694   -4.42777841020540    0.52825808026278
C           6.14299944136721   -3.34425595280265    0.14079306161393
C           6.47488953685781   -2.19573916951921   -0.51502922645872
C           5.49227533436119   -1.24479022009142   -0.86427322389559
N           4.67577765055971   -0.48791561682960   -1.13750065451849
C           7.79866900612854   -1.92034154801698   -0.92184803104486
N           8.87025939773768   -1.72032133488088   -1.27644464259771
C           8.39333628796716   -4.70911877536392    0.50247283253955
C           8.66409442825077   -5.96997609393925    0.99917017569634
S           7.22318738483244   -6.82013416952187    1.50960395234655
C           9.97265931015963   -6.55391417156658    1.08386194265927
C          10.25340275359489   -7.84477053713723    1.40015775882609
C          11.60721484783932   -8.31007516015295    1.39590824433397
C          11.93535619536164   -9.61575173548361    1.71467451274260
C          13.26553632788144  -10.06532876090643    1.70378923401804
N          14.35755616347718  -10.42148499425316    1.69117874388269
C          10.95515585685994  -10.55625078894117    2.07011530509739
N          10.14432125133663  -11.31614231273868    2.36130323043055
C          12.60073047216708   -7.34254710660912    1.03983929499439
C          12.23976946051140   -6.06412294867878    0.75777105675863
O          10.94469109543347   -5.65542963939095    0.77972771484295
C          13.13051166382954   -4.98865845396335    0.42260889181563
C          12.77220841480953   -3.65547197935824    0.36858216658973
C          13.84744720544310   -2.84868194292537    0.00477775540016
C          15.02275404910720   -3.58084020133930   -0.23695201755211
S          14.81052045069123   -5.25690317336987    0.01617719320172
C          16.04731167842828   -2.68205033859585   -0.63475225368789
C          15.50561035912439   -1.37648689923772   -0.63585177815322
C          14.11394150547855   -1.43731258951933   -0.21483349239767
C          13.24531152609513   -0.40422047611474   -0.02212032484567
C          11.93965741022383   -0.61268609092094    0.47457589406607
N          10.89512048156234   -0.78485421031656    0.91471522562290
C          13.60790624256071    0.93877273804769   -0.26148971969773
N          13.90116193205364    2.03005910307033   -0.45282563914711
C          16.43591996464233   -0.42666340454242   -1.02019508382716
C          17.67981873205356   -0.98863367904343   -1.32073849376143
S          17.68148810631587   -2.73625326003025   -1.11029763995951
C          18.76898961327898   -0.19776508207605   -1.73830481685531
C          20.03763760888174   -0.55699825119203   -2.09029260434892
C          21.08988420502027    0.36271308270930   -2.51417883443609
C          21.05910813638170    1.72811700153680   -2.62495194140087
C          22.20117490728067    2.43704881900496   -3.05709676470691
N          23.12781570375666    3.01520726224447   -3.40719876047693
C          19.95823368085465    2.55814372782307   -2.33827614620315
N          19.09826490336273    3.28681390547436   -2.12035148749126
C          22.23321291812427   -0.45744257753378   -2.80786855165008
C          21.96068052560657   -1.80224597895444   -2.58977908877350
C          23.05621687454084   -2.63659065494177   -2.86633982292229
C          24.12901039791075   -1.90630911319327   -3.28582215655236
S          23.83679087115055   -0.20573453634522   -3.35344688881307
C          20.57876351689143   -1.93389940379841   -2.12578095559692
O          19.98905285046384   -2.95715969727413   -1.82982559705129
H          -3.51239867271287   -1.23149250902352    0.62549160216257
H          -3.27813654551362    0.55707289812645   -1.28188527948410
H           0.68602317648722   -4.75527897496711    1.70820369202172
H           3.22383571728713   -2.34781112717980    0.08731602527959
H           9.15599564707143   -4.04652618915268    0.13759839611997
H           9.45561159773886   -8.52907800048239    1.64198752266636
H          13.63950951125135   -7.63094636399248    1.01085424471808
H          11.78135531065203   -3.30612711664784    0.59179576638984
H          16.24986738164766    0.63042799409974   -1.09260959026972
H          18.52996197383818    0.85868703019998   -1.78082044392318
H          23.05132082937834   -3.70562976512601   -2.76211780468566
H          25.09784355025882   -2.27108935021623   -3.56613332328770
