69
 SCF done       -161.085293557526          0.000837565121
C          -2.82907643052123    1.24923770181014   -0.62229867770994
C          -3.68399238643815    0.86048239931494    0.36288202606412
F          -4.48988862407139    1.69921940636348    1.01809046890008
C          -3.63305648853949   -0.52608425997638    0.62464935294748
F          -4.38559562892806   -1.13158232580743    1.55247619960020
C          -2.73025722312612   -1.19847261705285   -0.16890293667944
S          -1.94563396417655   -0.08067834308794   -1.24642670319772
C          -2.41849347185026   -2.58783512461652   -0.17343615809458
C          -1.49648910087294   -3.22621309925041   -0.98026285243020
C          -1.44106994904181   -4.59606569252580   -0.72110680058009
C          -2.33010856962770   -4.99190402426886    0.29457692821231
S          -3.23119069991460   -3.68744496962138    0.92645260057357
C          -2.19880122702231   -6.38671893956990    0.49046688218065
C          -1.22720395405729   -6.88106375799076   -0.40325016962968
C          -0.69976061973474   -5.76230455736772   -1.17406431276596
C           0.31697733588281   -5.78569203988768   -2.08099206415232
C           1.06970565208567   -6.94671109630744   -2.36671184286693
N           1.73026811901192   -7.85679189455758   -2.58549621745403
C           0.73105582489368   -4.62012928403158   -2.76166352578246
N           1.06398342800843   -3.67413443502028   -3.31721937195589
C          -1.04718824098602   -8.25611000350924   -0.30947055104972
C          -1.86262817019200   -8.81264437533251    0.66930585389767
S          -2.86839573150687   -7.61118289820706    1.47122241046470
C          -1.92393298909307  -10.16777042807137    1.04390948395123
C          -1.30195793337850  -11.25365170275195    0.41143928401873
C          -1.54894049240563  -12.50818891003640    1.07218165479666
N          -1.05872881303731  -13.65108432560571    0.58624010081374
C          -0.35444908722561  -13.57770396057410   -0.52103089270247
C           0.16028688328494  -14.85490964400986   -1.08091147436210
O          -0.17055086715973  -15.93722429589581   -0.65038507145369
C           1.08800484730027  -14.70111799075857   -2.21682135617249
C           1.31499524285305  -13.53648018029472   -2.83207971574251
C           0.66411654651004  -12.27085822073057   -2.44597630740475
O           0.73914865618461  -11.26668387539807   -3.11852951421740
C          -0.11024823256069  -12.33119156108344   -1.17853208973806
N          -0.57638656313924  -11.19593033291678   -0.70798823285306
C          -2.36125196234835  -12.38051707372323    2.20790790208481
S          -2.82236238263078  -10.72104415485985    2.42203554557505
C          -2.77294990347581  -13.40485941048938    3.08057120185136
C          -2.31548376812808  -14.71756005305277    3.09610564472227
C          -2.92350995756785  -15.45901884374089    4.10209780798906
C          -3.86671254568066  -14.71899020402633    4.84292314675668
S          -3.97836685671761  -13.09698072790316    4.32562217510625
C          -4.45409259464025  -15.56995748732826    5.80746662862776
C          -3.88403202876991  -16.84991524671657    5.68778714105431
C          -2.88302376052306  -16.81636017953822    4.63315740011408
C          -2.03945491652412  -17.82010610800956    4.26387104530686
C          -2.09253130660419  -19.10330008445752    4.85175204630171
N          -2.12514031956038  -20.14924427253145    5.31904218620195
C          -1.00988764473676  -17.64600800604635    3.31158353993174
N          -0.13531085313929  -17.52088124556731    2.58208017202045
C          -4.40509884818503  -17.76400558478194    6.60640555283379
C          -5.36580055367274  -17.18729705796158    7.41467695690523
S          -5.62892864554888  -15.49130152797583    7.04363319559003
C          -6.11888059271773  -17.80255736720400    8.45745965997312
C          -6.06002610473515  -19.10415727402519    8.90704125976945
F          -5.24041493368973  -20.02966393780356    8.40041169766036
C          -6.95749233878595  -19.37024418314305    9.96538892844896
F          -7.06378625402879  -20.56561694427784   10.54894987961800
C          -7.69875185620713  -18.28793039350725   10.32711830178997
S          -7.30639949118932  -16.92072790000846    9.37268156328771
H          -2.67839703075352    2.23760443199440   -1.00481998450933
H          -0.90780179006406   -2.70367297949424   -1.71246114528640
H          -0.37954610627080   -8.85651508611995   -0.90136049601247
H           1.55626901311130  -15.61683996444208   -2.55141579781484
H           1.97481967337327  -13.46871385143536   -3.68641127426549
H          -1.58535190334257  -15.07254084901568    2.39088106997043
H          -4.10833782008747  -18.79350257232484    6.68535111600626
H          -8.44280069358719  -18.22916420186323   11.09428952496732
