69
 SCF done       -163.610528020594          0.000860292424
C          -1.52883440357956    0.22164773575354   -3.70152730453364
C          -1.00012347869773   -0.66977134113442   -4.58431954149930
F          -0.50681626320974   -0.32687418008139   -5.77592603875550
C          -1.02587645405793   -1.99966856389317   -4.11068641701517
F          -0.55974808211809   -3.04212740911518   -4.80821095929363
C          -1.57977180908371   -2.12097832398320   -2.85504676967646
S          -2.06817453105273   -0.55579013899009   -2.27264788183839
C          -1.76333922612333   -3.29933826561751   -2.07787412699961
C          -2.32659107673533   -3.37571230596355   -0.81728984419700
C          -2.35068248725082   -4.68543886663594   -0.34139496242638
C          -1.79970312618763   -5.60753921930683   -1.25260894992783
S          -1.25555859709776   -4.86413263696267   -2.68865487070151
C          -1.86277113884967   -6.90346270194903   -0.68709805458459
C          -2.45740295849223   -6.79920800778866    0.58858250725550
C          -2.78283454905319   -5.40487639301373    0.84534008091340
C          -3.36784642525897   -4.88456604390371    1.96208290446499
C          -3.74619225909295   -5.68861938889223    3.05842921982660
N          -4.05668571143275   -6.33283357115767    3.95468079854036
C          -3.63299229660745   -3.50504109959300    2.09404168246244
N          -3.84926401981069   -2.38408823089711    2.20104089444098
C          -2.56375190098143   -8.02226263423366    1.23400663767739
C          -2.05511088677498   -9.06240442910508    0.46340015785328
S          -1.43750658840277   -8.51003699779446   -1.08694242649489
C          -1.99964664284377  -10.43445044330655    0.81433625142565
C          -1.45007349776687  -11.39037092390156   -0.06946389465750
C          -1.37240647528694  -12.79051805631841    0.25908689354449
N          -0.83813393265231  -13.64485837039918   -0.61939379447521
C          -0.39059384473374  -13.20864293740745   -1.77247616511234
C          -0.47033111116177  -11.81666985721101   -2.10032141840828
N          -0.98957803572083  -10.96394785537888   -1.24978984798597
C           0.00924177816243  -11.34484707321348   -3.34698565293425
N           0.40524976000188  -10.99184741706648   -4.36195763765796
C           0.17128940239277  -14.13046457951356   -2.68968579199860
N           0.63222229677093  -14.85267299380658   -3.44948068262287
C          -1.84352247648251  -13.30754352648082    1.48695332682807
C          -2.39818071537742  -12.35415162313976    2.37431576573067
C          -2.47399951599822  -10.94782411199535    2.04537420233508
N          -3.03165651792024  -10.24659718753769    3.03268493498526
S          -3.41901369831218  -11.22966680206012    4.23769197076014
N          -2.90471187707158  -12.59911089982308    3.58299588370479
C          -1.75239014048400  -14.69130413657287    1.77965613548941
C          -2.18387355544002  -15.33129970451584    2.93666926278835
C          -1.94105362820944  -16.69624258403687    2.89510527692564
C          -1.31673273124558  -17.10481918954304    1.69714850252209
S          -1.03470885806709  -15.80459297130861    0.62397268712963
C          -1.11568086195094  -18.50446718679427    1.75855736166087
C          -1.61060048428168  -18.98239405397830    2.98770373668054
C          -2.14602275035011  -17.86114005702700    3.74188352403081
C          -2.72058179032882  -17.89360103177705    4.97838533693325
C          -2.86658373824253  -19.09472829749383    5.70411412827584
N          -2.98517404555208  -20.07067294606775    6.29373617073228
C          -3.20778950187238  -16.73127512406114    5.61335543223353
N          -3.60841787760601  -15.79334515329678    6.13707810940634
C          -1.45335530564468  -20.35939966549066    3.13453390314173
C          -0.84430329123126  -20.92581562269879    2.02981937333172
S          -0.45886428669331  -19.74569171032460    0.78956256671504
C          -0.53262712544421  -22.30246642396597    1.84563335955006
C           0.07778326857708  -22.90673493765416    0.76840850602162
F           0.48378365989882  -22.23360583937460   -0.31446130168248
C           0.23113010224544  -24.30182365649992    0.92278817641206
F           0.79700070854015  -25.08227173371091   -0.00000301277016
C          -0.25670377480061  -24.76474806020071    2.10651651556925
S          -0.91298600201298  -23.49594818334501    3.05330795115485
H          -1.62537104551777    1.28107436466237   -3.82110109083753
H          -2.69253337554459   -2.51189734084905   -0.29206611289183
H          -2.98045509848614   -8.18941453293647    2.21014300475779
H          -2.64620183088968  -14.79432825202420    3.74434377904076
H          -1.75753394263131  -20.93670846095100    3.98901662067261
H          -0.26150932304707  -25.77474983538376    2.46131101818796
