125
 SCF done       -218.244488218030          0.000402343890
C          13.23860226965185   -9.32035486386609   -4.65754142738349
C          12.54072094272505  -10.46689535303759   -4.39137313465532
C          11.75539356083049  -10.56527694785962   -3.23300360512693
C          11.67881134454981   -9.51679035773659   -2.35738236941278
C          12.38479063405943   -8.32093087012325   -2.60026539155370
C          12.31197435135067   -7.23584801662650   -1.69690118474705
C          13.00589001590707   -6.08731303644608   -1.96836108082548
C          13.78574978060266   -5.98704992065981   -3.15781654308144
C          13.88282321019728   -7.02342829577426   -4.04093027172517
C          13.18034263943019   -8.22100872086434   -3.77829912744813
C          14.38191091002137   -4.64143229321905   -3.23791213676662
O          15.14863332338562   -4.21134904023237   -4.06830213183531
C          13.77876808641398   -3.88000966344630   -2.10377311878883
C          13.13085196173659   -4.83787063420075   -1.22572839947183
C          12.89822798523259   -4.68226762143418    0.11436491670133
C          12.33176833120743   -5.68326839469099    0.92927200754444
N          11.84654277352333   -6.45896240886553    1.62252651804301
C          13.25607915337032   -3.52789680634510    0.84231752590155
N          13.57000441765852   -2.63438784374291    1.49016128892198
C          13.81162126481011   -2.52642945784112   -2.12681643773660
C          13.01000625260794   -1.58048109653054   -1.39714596463738
C          13.49775770442147   -0.28045347767254   -1.20375627622593
C          12.75789961802989    0.67326900983268   -0.53648272669049
C          11.49559514254799    0.33363746763920   -0.06915196721322
C          10.98713030018560   -0.96249082647549   -0.27103342798259
C          11.72636447509751   -1.90831122578661   -0.93228521324330
C           9.61106355896872   -1.10051455011090    0.33709891063082
C           8.56380783132582   -1.51397578063571   -0.69972609629783
C           9.64214722709693   -2.09765271273582    1.50222979824716
C           9.36901363915266    0.30219428357641    0.84384144202082
C           8.24118902570302    0.81088980581933    1.43723919013911
C           8.20456797318336    2.16477095411953    1.79499575388697
C           9.32346730484239    2.97154574321585    1.56144800929758
C          10.46645520392418    2.45710592027358    0.98333240777764
C          10.48743643552260    1.11987775081742    0.60988078888620
C           6.98310310305464    2.72831937497044    2.35204260174006
C           6.16649358987495    2.01378192384676    3.24492197977145
C           4.86121162657946    2.49319095241384    3.64524253809594
N           4.16203010208450    1.80121176869926    4.56273707991805
C           4.63154263220039    0.67419416360148    5.02729863296781
C           5.89900010315557    0.16575905413982    4.57747898599814
N           6.62774035134564    0.84801983003242    3.73713252806198
C           6.37761208558857   -1.07908041911925    5.05737580886227
N           6.72306127010103   -2.10088067304548    5.44291715053388
C           3.87232821740583   -0.03878462758597    5.98783654696365
N           3.25846215958691   -0.65124857715433    6.73664501460823
C           4.29805791121411    3.67261310708265    3.11418473920362
C           5.16913240037825    4.44662793298337    2.32389562265631
C           6.49621745909654    3.98632230741172    1.96217730539321
N           7.11914770091084    4.86014770677512    1.16315493162976
S           6.15983320410386    6.11195535125005    0.90283852714240
N           4.89993232743941    5.63121505496983    1.76259966119031
C           2.89538682305154    4.00957020175814    3.29336536625035
C           2.46006689072182    5.34181924658311    3.25404709983892
C           1.12049426657268    5.66361268065143    3.32810697078960
C           0.18708293837887    4.64296978576373    3.45523296533690
C           0.61466061203608    3.30759810722582    3.54416240682647
C           1.94468729818225    2.98867955334332    3.44769749326826
C          -0.56159323765196    2.37463989244674    3.71372187140162
C          -0.61625852463782    1.32015047006882    2.60565047128640
C          -0.51593138604525    1.70435646430941    5.09213179621141
C          -1.72086569065456    3.33977033222317    3.61655106474430
C          -3.06542579013269    3.06990397104027    3.63248663428758
C          -3.97796808726265    4.11721976051084    3.42936053746039
C          -3.51092450703730    5.43135011612758    3.31008317957774
C          -2.16009579466957    5.71191896723024    3.35011392567453
C          -1.26024691910339    4.66241583237117    3.47545637997527
C          -5.38209070757932    3.79264015417313    3.35422016658600
C          -6.27458354492141    4.28991637941286    2.46348199495216
C          -7.68685384238899    3.94078157078521    2.39595398939034
C          -8.44365815717526    3.45668033326202    3.42806249078637
C          -9.81848066247691    3.15870453181882    3.32427681379870
N         -10.93494132236940    2.89403821928207    3.29252235694690
C          -7.96038566470832    3.23114248658123    4.73490812523652
N          -7.63924108416049    3.04322141256513    5.82098838117145
C          -8.16478401850603    4.27523057172311    1.06255713769444
C          -7.11348503994227    4.92566689549893    0.35596648046730
C          -7.26561327996980    5.34793141421286   -0.93333108034150
C          -8.49847771913776    5.13159265175474   -1.58817639040852
C          -8.71099043164889    5.53853646249029   -2.92015779978013
C          -9.91039204041679    5.31066510847873   -3.53823990012759
C         -10.95113038507110    4.66858332325797   -2.85036213614824
C         -10.77787831096748    4.26193566269022   -1.55551072457112
C          -9.55457920132196    4.47858299148699   -0.88871672666702
C          -9.36897205853509    4.05488985110092    0.44686920968691
C          -5.92024090924682    5.02881451208529    1.21661258276865
O          -4.86814596291555    5.55224119298374    0.92633977502991
H          13.84467344789813   -9.23855533252570   -5.54795848456771
H          12.58930555956399  -11.30380290993107   -5.07186301509111
H          11.21122321743997  -11.47713897385800   -3.03771826531495
H          11.07830992032509   -9.58915886302275   -1.46250336049261
H          11.69642078199268   -7.33478249274430   -0.81620062551395
H          14.48532547661008   -6.93013014135958   -4.93223267418373
H          14.49655601668304   -2.10323633134439   -2.85610823520963
H          14.48440658073476   -0.03718113775242   -1.56966883273630
H          13.15231584228542    1.66676399260247   -0.38697844054035
H          11.31485294396879   -2.88681905141585   -1.13200793397945
H           8.79626596987966   -2.49743328851493   -1.10120259008481
H           8.54000773517507   -0.79949956679896   -1.52020109072565
H           7.57810909324763   -1.55366076917953   -0.24299859724699
H           9.82674433732763   -3.10501863818388    1.13589144985577
H           8.69387576177221   -2.08903216386001    2.03393574385762
H          10.43364849893207   -1.83529298475745    2.20041729710807
H           7.37377795709025    0.18953693717535    1.59422386620876
H           9.28700715000830    4.00991247665802    1.84984098965575
H          11.32504144006161    3.08971458896460    0.81670328010517
H           3.19294108185070    6.12638071646352    3.16085710247751
H           0.80578956727244    6.69515405685642    3.28196704377909
H           2.25592705224610    1.95695963606237    3.45754011640767
H           0.25552413032311    0.67271639419390    2.65919770049591
H          -0.63753396510823    1.79886353717491    1.62868410759622
H          -1.50735461509182    0.70648053113698    2.71179585387336
H           0.37601261777474    1.08939012779522    5.18456121184029
H          -1.39091892259657    1.07515342819556    5.23489459069764
H          -0.49787658120045    2.45766770091878    5.87654387140989
H          -3.43168916911759    2.05941549594815    3.74367485869712
H          -4.22257256742847    6.23521864377768    3.21337985492669
H          -1.81175318547901    6.72972229663073    3.26481832908036
H          -5.71417430112081    3.01520907156201    4.03360647464856
H          -6.45275233547829    5.83826303151664   -1.44836889403302
H          -7.90588645213918    6.03240555859216   -3.44453850767885
H         -10.06381791374841    5.62323236999482   -4.56039501040416
H         -11.89144150247744    4.49725966412347   -3.35251636501798
H         -11.57639067731009    3.76798806635499   -1.02150394174099
H         -10.18240946555455    3.55405825359206    0.94788795709727
