111
 SCF done       -200.477824239253          0.000558476457
C          -1.54176537556564    0.35325020200900   -1.47940780916749
C          -2.45155662429257   -0.66788412097435   -1.42642031782603
C          -2.01764439967881   -1.99819686500296   -1.33201305868250
C          -0.68104614794411   -2.28895549370811   -1.29205466182299
C           0.28265437473193   -1.26212679809425   -1.34787488219857
C           1.66557255366131   -1.55915962944297   -1.32187248360584
C           2.57469406644111   -0.53863087707460   -1.38611057258715
C           2.12514622547015    0.81144352365162   -1.45725913238234
C           0.79856202716077    1.12750751418098   -1.49023981057591
C          -0.15894606067537    0.08857101158902   -1.44112727709121
C           3.29519194087498    1.70802566116723   -1.47043241866228
O           3.30675548591482    2.91580555749753   -1.56787400534423
C           4.47574724689625    0.82268920926673   -1.28799144133139
C           4.03701331870803   -0.54425430895723   -1.42197815356233
C           4.79562939085526   -1.63686761688662   -1.76984317006528
C           6.17177769901101   -1.61192503482602   -2.06154286319619
N           7.28547398425700   -1.67401616991644   -2.33789242906980
C           4.27133233581652   -2.93178233823163   -1.95203541284142
N           3.91830339260289   -4.01649687050030   -2.08766681353346
C           5.67877968194735    1.40492449787252   -0.99151688856590
C           6.84033894128473    0.83855129114201   -0.44353631914606
C           7.01791340211729   -0.35574601010384    0.25229861606006
C           8.32813510517508   -0.60274811713468    0.60825863003094
C           9.19052796567645    0.41462965313043    0.18393072164937
S           8.35942661591318    1.70053260561589   -0.59183054475660
C          10.57280132038032    0.22432765256598    0.37703646758443
C          10.98457984229100   -0.99222172756424    0.93135353179183
Ge          9.39797007721552   -2.09646931168457    1.31752902616417
C           9.13003094295647   -2.43652779760051    3.25585895524449
C           9.22755037259542   -3.69747526897351    0.16615248564734
C          12.36181750635216   -1.08483945386087    1.01185768579217
C          13.02634696416431    0.04293056533136    0.53707912246727
S          11.89537210153541    1.25585298809673   -0.01428098923557
C          14.42389503533150    0.27452400778290    0.43191790559259
C          15.42314290914198   -0.69230794192987    0.72520934024950
C          16.81326603687048   -0.41141786404212    0.50678853897224
N          17.73512525606309   -1.35649114904755    0.75973706101313
C          17.35804532369379   -2.52020348021731    1.20850216750277
C          15.99615851645294   -2.79066859461035    1.43636522661519
N          15.06953556801687   -1.90327393198406    1.19927054771371
C          17.29421982434582    0.83056315672083    0.02125469957551
C          16.30742683355678    1.80993608310563   -0.22067945397430
C          14.90686525740953    1.52067316316943   -0.02650435481062
N          14.14100987171034    2.56748964646094   -0.33500468213531
S          15.07031616344051    3.78400112336191   -0.81394423187548
N          16.49326225404327    3.05619664211724   -0.66109660379566
C          18.67482471473181    1.02763533012127   -0.23173946337663
C          19.29675190340067    2.19660349531514   -0.66294999574567
C          20.65501357601212    2.05122872125864   -0.87773688514081
C          21.08498907850137    0.74541502071383   -0.61535796418188
S          19.80936755850397   -0.28340637998449   -0.06708734631752
C          22.43917508818947    0.44812127526343   -0.86261628607903
C          23.25919736029569    1.47929383168143   -1.34575375505559
Ge         22.19212097998765    3.13147700857866   -1.47666685089293
C          22.03168402068821    3.82842822793213   -3.32571998265552
C          22.74641618732373    4.50661493916743   -0.15874872646312
C          24.54388546157751    1.05259510214165   -1.61128994999191
C          24.74909826850968   -0.30186817802786   -1.34890564813344
S          23.27665187445573   -1.04045571517737   -0.72120686192249
C          25.85752415441132   -1.14944742054003   -1.49091577436563
C          27.09270541258988   -0.95381852725317   -2.06044346555511
C          28.10555993133342   -1.99216699315260   -2.12661184865669
C          28.13061620760944   -3.17627805482713   -1.43182703022722
C          29.15807544436187   -4.13494892446298   -1.54751477837936
N          29.95375176782790   -4.96203170789478   -1.59563548446364
C          27.18382963786716   -3.60680363627617   -0.47958475969625
N          26.48188233362723   -4.03077558446461    0.32574515486219
C          29.15777146243503   -1.53758469691620   -3.02978056480664
C          28.85855139926328   -0.20560550763794   -3.42743405658375
C          29.66824804398049    0.49761507448260   -4.27080362073034
C          30.83633940687608   -0.11724173484622   -4.77515255011689
C          31.70876907004374    0.55454784902301   -5.65340820509792
C          32.83018919575383   -0.06455889143249   -6.13519776490623
C          33.12803790403257   -1.38247544050303   -5.75884648142905
C          32.30143817311610   -2.06227445363344   -4.90613350954072
C          31.13853662595784   -1.45482301811830   -4.39091732242273
C          30.28255911912599   -2.15447801455265   -3.50860688617833
C          27.59165245911607    0.22209691007113   -2.80589393681156
O          27.09419862220028    1.32623279934966   -2.91753303256104
H          -1.86991253422419    1.37995160444662   -1.55187760246003
H          -3.50993192585563   -0.45586329432459   -1.45693231116034
H          -2.74799962886925   -2.79256178877828   -1.29246919779370
H          -0.34190891164716   -3.31230494514712   -1.22350028589170
H           1.96904046618589   -2.59132243805760   -1.24315195783497
H           0.48133070564009    2.15768315231213   -1.55536319198229
H           5.70833536118820    2.47668450088866   -1.16720470772222
H           6.19701954355172   -1.00075685868600    0.51452973005774
H           9.22735888765203   -1.51388478351689    3.81929754624816
H           9.87105517020166   -3.14377701004775    3.61504288367075
H           8.14247162641845   -2.85215806755596    3.43133470733332
H           9.19217368089990   -3.39311681252165   -0.87539921859440
H           8.31233605765787   -4.23221956941656    0.40129324345220
H          10.06968386246786   -4.36656082688706    0.31299999943538
H          12.89861277840971   -1.93370162687426    1.39287099957350
H          18.13318269853917   -3.24889229314515    1.39776536590248
H          15.66405177598672   -3.74559776505435    1.82060200827506
H          18.74456381628902    3.10657722551331   -0.81382454864619
H          21.70135297313603    3.04412970104215   -3.99918075311324
H          22.99470709635952    4.19668964344180   -3.66539835053955
H          21.31589223313699    4.64394947174860   -3.36023591212539
H          22.81500262107910    4.07219108563161    0.83373167900727
H          22.02590566092556    5.31838189185159   -0.13568045453568
H          23.71673428996886    4.91101098013540   -0.43016306924573
H          25.32625084625616    1.68152458123983   -1.99608622291252
H          25.67298922181686   -2.14778696413420   -1.11085139583855
H          29.41870384240844    1.50973923142410   -4.55336208752260
H          31.47373519937992    1.56937563842802   -5.94007552206546
H          33.49322067256159    0.45753602047880   -6.80901684595542
H          34.01647055616376   -1.85698197210879   -6.14815416077635
H          32.52712881009302   -3.07700808032846   -4.61238566478695
H          30.53913497899130   -3.16694132045813   -3.24106901469394
