95
 SCF done       -188.490140531968          0.000614974983
C           5.84281631882490   -1.08889581074354  -10.99709731690674
C           6.50046094078296   -1.23233162834937  -12.18859289632514
C           7.88443523783224   -1.01601856208320  -12.26395504287596
C           8.59105153680636   -0.65889233686789  -11.14794964387812
C           7.94514570173345   -0.49918576000692   -9.90527763713102
C           8.66788741887868   -0.11522731677986   -8.75201634842128
C           8.00566016751531    0.03555249955905   -7.56424141854503
C           6.60277520635637   -0.20964778231044   -7.48880914286397
C           5.87985657957944   -0.57327693418961   -8.58801732862141
C           6.53981926387780   -0.72232921006301   -9.82890533328589
C           6.14654769784678   -0.01491836434356   -6.10018774634171
O           5.01950884073051   -0.08402445385964   -5.66562454367510
C           7.39020628482571    0.22431026902426   -5.31415250256222
C           8.46823321479926    0.46556926061743   -6.24948525398278
C           9.58542725103542    1.22250156500749   -6.00942975758350
C           9.81560405992691    1.88543309773124   -4.78619982306280
N           9.99559770502285    2.48448564774936   -3.82352591108647
C          10.56253902022607    1.50627545392758   -6.98338881392334
N          11.39365616621781    1.74566223695905   -7.73822857134102
C           7.36475763977369    0.08848539177330   -3.96108270103319
C           8.43005996835060   -0.14478031702343   -3.06003220417206
C           8.37179870893976    0.02940621268927   -1.68741021825360
C           9.56004918018028   -0.32509668923190   -1.06102162420191
C          10.53630086644363   -0.82019791335131   -1.94286657200651
S           9.97227678348711   -0.82567577798835   -3.56705200863494
C          11.71704675107346   -1.17489997550588   -1.29465837145957
C          11.64294087933292   -0.94433788607629    0.08889804828215
S          10.10547702020142   -0.29558655145271    0.59213263300455
C          12.80970557377473   -1.26843424806782    0.76843635678343
C          13.78815296664847   -1.74871955971860   -0.08774988213084
S          13.26022452715545   -1.80800697649192   -1.75749811800668
C          15.10499966723652   -2.15517169828013    0.25464812337151
C          15.99335553205520   -2.61233429125277   -0.74590586916634
C          17.33619147449950   -3.00749069408570   -0.45671533432749
N          18.13149766375055   -3.42855300715207   -1.45478788130011
C          17.66700161261186   -3.46807069225219   -2.67171852187054
C          16.34210442093045   -3.07788378033015   -2.95690137810890
N          15.54475573480275   -2.66707990704006   -2.01144184006786
C          17.87434299773660   -2.96756544076255    0.85024878637103
C          16.99059303001459   -2.52514333137349    1.85875514403590
C          15.62807449516951   -2.12680923823071    1.56605464622083
N          14.98294410740153   -1.74594758170906    2.67089782668328
S          15.96591616099653   -1.87147359588667    3.93028649448107
N          17.26334111511971   -2.41227954522173    3.16057607679879
C          19.22409031040827   -3.34466115131289    1.08124021300808
C          19.90516751844639   -3.33185990009650    2.28870346778171
C          21.22274891461851   -3.74653313801616    2.14359101282042
C          21.55928311601859   -4.08670645329152    0.82313981242556
S          20.22047372936522   -3.88242057811310   -0.25503587650547
C          22.88860433801558   -4.48672459492500    0.71017673126740
C          23.57419238464120   -4.44645611997691    1.94131119611940
S          22.55493193949587   -3.92110566415657    3.25514534627188
C          24.90673193510187   -4.82144122322542    1.86052390872570
C          25.27336726438049   -5.15858060615048    0.56531838910752
S          23.91428422508356   -5.01476264790617   -0.55864453434532
C          26.48368851247180   -5.59916835669581   -0.00343623814853
C          27.74906216949270   -5.69238639933501    0.50948082116791
C          28.88403114614161   -6.17856750333255   -0.25976246474751
C          28.84143261758846   -6.90241217694529   -1.42360438898856
C          29.98747440669666   -7.35269274625390   -2.11207893264613
N          30.87615443254827   -7.74584465790275   -2.72370082046424
C          27.67447215765992   -7.34735822468223   -2.08017984228635
N          26.78226711224718   -7.76856567671560   -2.66878375394483
C          30.09892246635992   -5.83114039718987    0.46679705076164
C          29.72583080100132   -5.25768856707635    1.71430788312170
C          30.65366388267562   -4.83792072780924    2.62304675213004
C          32.02644024070339   -4.96624619347732    2.31415010661266
C          33.03039511300923   -4.54607789226545    3.20842346764398
C          34.35392984302133   -4.67340922790951    2.88423791733296
C          34.73129466286967   -5.22750023750088    1.65200111861201
C          33.78072175375200   -5.64647830858007    0.76139609326983
C          32.40860749730393   -5.53011218606905    1.06291055436882
C          31.42374615505078   -5.96259026418341    0.14522750238382
C          28.25671542963948   -5.20093893480782    1.81347487387155
O          27.62673462109995   -4.81421983028252    2.77680939297601
H           4.77722071040817   -1.25419258727598  -10.93292115873699
H           5.95811766690696   -1.51301667217966  -13.07909221863790
H           8.38813037156467   -1.13275862945647  -13.21186338638770
H           9.65612939737187   -0.48736310847679  -11.20183687031833
H           9.73231406458414    0.04203829963956   -8.83324550058014
H           4.81608586737708   -0.74376036205646   -8.51374985300256
H           6.37301792228335    0.08004275772048   -3.51775231637733
H           7.51067266556952    0.42985579067306   -1.18481658920951
H          12.96554181941191   -1.16528670388899    1.82558615711765
H          18.34150953833999   -3.81214685551695   -3.44230292041815
H          15.94026985259637   -3.10459392408115   -3.95936261735078
H          19.44416689656621   -3.02861610981875    3.20960065647626
H          25.59347378584312   -4.84638254438929    2.68632901733515
H          26.37533499856341   -5.87734269864720   -1.04591081712489
H          30.34380098664698   -4.40929088945883    3.56463974074239
H          32.73385067241539   -4.11976815280993    4.15569033973134
H          35.11711614786910   -4.34749637562766    3.57510021510023
H          35.77979440274865   -5.32072651858949    1.41160095900538
H          34.06596811084854   -6.07501364868669   -0.18822012570276
H          31.74571593241772   -6.38032525859147   -0.79528605105855
