91
 SCF done       -171.149798107980          0.000866033797
C           0.10879044816419    2.48789038553969   -4.53616293914301
C          -0.90208735850524    3.31256483708148   -4.12239183117221
C          -0.65835542465630    4.30378585979175   -3.16035107927909
C           0.59191522783992    4.45705522658377   -2.62563935704488
C           1.65624225681421    3.62645879102487   -3.03042955659363
C           2.95287629506244    3.78796019063260   -2.48916900490782
C           3.96279976427703    2.96441833835767   -2.90705334176665
C           3.70280675732061    1.94539885508656   -3.86953321594395
C           2.46383262785271    1.77301616662741   -4.41467082392904
C           1.40715375241185    2.61815015980733   -4.00575994936116
C           4.93964728493977    1.18196197316553   -4.11419609614875
O           5.11809814481852    0.28084041671691   -4.90105591850463
C           5.93052316292651    1.71603601245789   -3.13473370187257
C           5.38087442120027    2.92291472940553   -2.56298463742667
C           6.08982004740845    3.96349507860695   -2.01683898776817
C           7.49576751105578    4.00665635818311   -1.96334088457851
N           8.63876844107662    4.10922601750376   -1.91750015928571
C           5.50115447574199    5.13853833994589   -1.51006163643254
N           5.07478863706906    6.09780839451288   -1.04449974572409
C           7.05086296442817    0.98270026224258   -2.87891550295340
C           7.94122003820134    1.01271378780671   -1.78316994818098
C           7.79995424960186    1.57853123911166   -0.53247599254134
C           8.87907647579321    1.33481612260843    0.32122202174117
S           8.97374474591324    2.07659592618810    1.90096053496583
C           7.93531942610977    3.55962130029740    1.65852688814688
C           9.87314005502800    0.53353312326715   -0.26801433527823
S           9.46111246937713    0.16263505541947   -1.91439055646533
C          11.08716761217179    0.02409202213498    0.26140536561323
C          12.05964633870842   -0.54170834838520   -0.60951758920679
C          13.33942300484608   -1.02046801705145   -0.17152928326256
N          14.20915864988090   -1.49035936510306   -1.08767556028548
C          13.85765520222335   -1.53008093203461   -2.34240536815050
C          12.58293952800055   -1.11131845893657   -2.76632874229282
N          11.73086591573324   -0.62761564343468   -1.90655314561673
C          13.69666672887634   -1.00809309099334    1.20060162241129
C          12.70717215291502   -0.51795772009707    2.07507737663582
C          11.42557921752502   -0.02354395383771    1.62872681110438
N          10.64973730435848    0.30755499387778    2.65935291280773
S          11.44222981064729    0.06866798023569    4.03177051581767
N          12.80993103072293   -0.48692082219329    3.40492796634361
C          14.93733813921500   -1.48498295030532    1.71696020979224
C          15.99645229620197   -2.05003142195832    1.03770199194587
C          17.06633551878706   -2.42984410354395    1.85669191089882
S          18.52177741235394   -2.97955967190852    1.07385870107811
C          19.85996445017493   -2.52576887470002    2.20549733067898
C          16.82522672862962   -2.19250125712598    3.21393796593634
S          15.27921982720073   -1.37797583617229    3.41768610032965
C          17.52404004394694   -2.50131795763103    4.39289489932611
C          18.33004779869644   -3.58881507804677    4.62582689723190
C          19.11874477267378   -3.83061803018757    5.81234112716154
C          19.50765930580726   -2.88481234092264    6.72762680656965
C          20.31640579686992   -3.15855148629125    7.84785246359290
N          20.97091046304770   -3.32585761327763    8.77639561440670
C          19.20197420749733   -1.51307852964060    6.62293295125632
N          19.01855008365614   -0.38048395141662    6.57028119904335
C          19.53559115706751   -5.22795248027369    5.79175506383910
C          19.10235167578927   -5.80900737439384    4.56515747504771
C          19.35191567529909   -7.11427038440512    4.25969374852666
C          20.05715886611966   -7.91593949279758    5.18691594710624
C          20.33863601630364   -9.27134163621606    4.92937571108862
C          21.01161194825982  -10.03311839965547    5.84620808487168
C          21.43519083639565   -9.47123236411122    7.05917304319517
C          21.17902214694499   -8.15634336728783    7.33911152429553
C          20.48700942049575   -7.34426522471521    6.41840909290873
C          20.21604942534797   -5.98594447498127    6.70580020323002
C          18.35180996819827   -4.80415435620365    3.78824612727646
O          17.79877207350138   -4.96726197431766    2.71634868137627
H          -0.07287160424604    1.72253742569378   -5.27648520424867
H          -1.89455165918665    3.20527210393086   -4.53385747123649
H          -1.46649166649063    4.94674274746172   -2.84529483594108
H           0.78516737757228    5.22146271643800   -1.88730455360682
H           3.11218294041116    4.55545132201712   -1.74760943243368
H           2.29060671584052    1.00206644240622   -5.15063976544650
H           7.24256289399374    0.19448981716970   -3.60168538296548
H           6.91332184711772    2.09874545429994   -0.22057214815385
H           8.17602872791154    4.21149354242404    2.49230270966330
H           6.88053334041298    3.30504421978795    1.69589015414450
H           8.19473384035459    4.04358062991549    0.72302721076220
H          14.59314386800351   -1.90795437254187   -3.03910468132700
H          12.26245265777359   -1.17048150783798   -3.79619864849900
H          15.99962787031136   -2.17655717964595   -0.02838300965720
H          20.72664046188263   -2.33883711234841    1.57841944977206
H          20.07512832968636   -3.34121433246193    2.89381149500778
H          19.58916620546653   -1.62927170942629    2.75426104123906
H          17.29261465901264   -1.85854993174027    5.23457801681764
H          19.01405624062707   -7.53324543880645    3.32337285868084
H          20.00967449796558   -9.69906897596071    3.99345696761386
H          21.22048054442799  -11.07260427856180    5.64132363531151
H          21.96495157302543  -10.08546279546446    7.77189089147699
H          21.50350158179152   -7.71832881601541    8.27170142866064
H          20.54504330881377   -5.58178092549430    7.65026528162299
