121
 SCF done       -223.576359956332          0.000405081160
C          11.53033783740262    8.89534626740262   -6.91955655231675
C          11.85019009574675    8.60804964421579   -8.21856090826996
C          11.45274025893612    7.39148453898664   -8.79320507352333
C          10.74041789045624    6.48137546948826   -8.06122980744718
C          10.38902929959272    6.74641190745464   -6.72202062893553
C           9.63610193258128    5.81751711471317   -5.96853216546884
C           9.30556742495977    6.11917171643126   -4.67623369754267
C           9.74380145711948    7.33949739995911   -4.08275448177949
C          10.46673895383348    8.25609302349159   -4.79099433833592
C          10.79718655894855    7.98069455697518   -6.13752590112589
C           9.31384269187544    7.37784041819152   -2.67210511929085
O           9.45633128095808    8.27224165392346   -1.86933464827787
C           8.72011195505748    6.03464996512750   -2.41458594161590
C           8.50714727004696    5.39147127262499   -3.70054554868363
C           7.53031782434278    4.48465601037497   -4.00934378770506
C           6.57872237059310    4.01341646105699   -3.08059129179937
N           5.74559535034651    3.65053180863427   -2.37857550815062
C           7.30881252852195    3.97005608269549   -5.30171739781444
N           7.07044083690731    3.50436815982821   -6.32396465347484
C           8.60255138589319    5.57162636161739   -1.14232215989127
C           8.45185407947472    4.21877165013749   -0.74335564935539
C           7.93252537376486    3.74069544552781    0.44444151025057
C           7.87443555912768    2.34660108388697    0.51786764553667
C           7.32948537712265    1.62615672847011    1.66938010844040
C           6.06421861865090    1.97719155231051    2.17119227519753
C           5.55446620969167    1.30991500868280    3.27967807476879
C           6.30245288571463    0.31944219050317    3.88805274292947
C           7.55286646460661   -0.03176676482466    3.41500097086154
C           8.07234679541948    0.61871931282425    2.30241363053887
O           9.29259738230628    0.35701729661659    1.75667686211203
C          10.11434487589785   -0.60888101420425    2.36826816137715
O           5.41437327305829    2.95502133917345    1.49649721689134
C           4.09186679090522    3.27442026124112    1.85607050459916
C           8.36701179050331    1.74138782189848   -0.64370955998570
S           8.95555011978999    2.91625671921493   -1.77959476490910
C           8.29964510369565    0.41478273008147   -1.09653687284297
C           8.57216155099650    0.05601171081989   -2.42660153516430
C           8.30919898111322   -1.32131719674114   -2.72596308852208
N           8.45328536221682   -1.78963345622604   -3.96666537784744
C           8.86111201293530   -0.94137358405119   -4.88593859771262
C           8.97390487375200   -1.44374152812442   -6.27950131908061
O           8.70310216375919   -2.58038916559989   -6.60050068970120
C           9.42520426550800   -0.44458777218775   -7.26682345448444
C           9.70629771757246    0.82826209545750   -6.97054123896740
C           9.60545194113011    1.38423462608042   -5.61400338000711
O           9.88766100712613    2.53985042631496   -5.36137128204949
C           9.14491519891904    0.42931284157749   -4.58096859224629
N           8.98915972691935    0.90161500137564   -3.36178837139831
C           7.84656137315604   -2.03224516073083   -1.61129702965188
S           7.74107874382677   -0.97341880937565   -0.22920665039266
C           7.47944742519138   -3.38819988321747   -1.57421270131494
C           6.81518068710351   -4.04625556498258   -0.54457276353017
C           6.53246029013792   -5.36683600989838   -0.84379149002819
C           5.79981718910488   -6.25438641230240    0.06752460033986
C           4.53208580340848   -5.86621491526662    0.52597540132230
C           3.82551395044972   -6.69555227754970    1.38775381942625
C           4.38586537300287   -7.89247402465256    1.79460137627207
C           5.64069973488297   -8.28208597019834    1.36948767438265
C           6.35644618172697   -7.46654996873852    0.50067164073846
O           7.60912308088310   -7.73922770598056    0.04323449353060
C           8.18099854538448   -8.98549920102055    0.36647063142218
O           4.07195101536857   -4.67454775121174    0.05036613185051
C           2.78381905411567   -4.25150181036752    0.42517914247744
C           6.99658978770823   -5.74855321998513   -2.12318975457707
S           7.82069154424344   -4.43023351541925   -2.91729617247137
C           6.70812601731206   -7.00238339609472   -2.67881930026852
C           7.06307934725607   -7.52912676037949   -3.89603813479727
C           6.65833652540350   -8.81735546425582   -4.41646609890116
C           6.00039068757535   -9.81792256851947   -3.74327525099627
C           5.62965075959906  -11.04822724075809   -4.32307721187937
N           5.29419227895600  -12.06924212470442   -4.72891725630082
C           5.64677840203929   -9.80370421885365   -2.38067020020921
N           5.35233856381488   -9.90874341448260   -1.27390856892044
C           7.12355997210455   -8.90273656549556   -5.79886984204417
C           7.87452535136523   -7.72968883931482   -6.09491877336333
C           8.44322062602780   -7.51855680463375   -7.31630002514966
C           8.28374850402839   -8.49674148370224   -8.32424601529277
C           8.84421784022448   -8.33761813498229   -9.60633040878650
C           8.67887833696876   -9.29875948542679  -10.56674745513612
C           7.94527224190707  -10.46061460664227  -10.28617186273244
C           7.38612806867334  -10.64462974097874   -9.05067500571923
C           7.53668347990693   -9.67537116816581   -8.03853387407621
C           6.95814225030774   -9.86291305618471   -6.76095297010320
C           7.89145251304456   -6.85821828670685   -4.90952957923990
O           8.49118223259769   -5.80703850026933   -4.79159134026266
H          11.83534391888066    9.83020993198442   -6.47204995315390
H          12.41186852723581    9.31569198426362   -8.81018263518978
H          11.71336075234544    7.18065900236048   -9.81982036125566
H          10.42756348203484    5.54479092846722   -8.49866820455816
H           9.35835658242908    4.87492746055611   -6.41228403207501
H          10.78468481142599    9.18059012385292   -4.33200483060694
H           8.70017673008508    6.31020288644304   -0.35302243865265
H           7.56574965585942    4.38479416536975    1.22270564875613
H           4.58357043322029    1.55864160893644    3.67535683722827
H           5.90249050167300   -0.18996044392261    4.75169004717069
H           8.11031948311163   -0.80617219161897    3.91479850608446
H           9.65003838681381   -1.59971776602768    2.35186923588038
H          10.35738242668614   -0.33377289499506    3.39889956615434
H          11.02853174547667   -0.63075064231564    1.77710830770102
H           4.03892921991489    3.69981316906673    2.86373794971325
H           3.43594656716547    2.40098388893025    1.79337583954269
H           3.76903457342372    4.01940242625238    1.13093795807025
H           9.50869374814132   -0.81527738360973   -8.27977725784421
H          10.02511584172848    1.52656488344598   -7.73232720493083
H           6.53681484617791   -3.56329351605655    0.37552878089549
H           2.84477053008404   -6.42274024670374    1.74107686116257
H           3.83058107367473   -8.53550699021656    2.46015458172972
H           6.04450220884264   -9.22141208126951    1.70530996680323
H           9.13007659743090   -9.01775412386004   -0.16660594811206
H           7.54509460550520   -9.81049174146709    0.03277772718815
H           8.36717108083449   -9.07511905461671    1.44142994695196
H           2.01593848096910   -4.96133546445307    0.10230049582430
H           2.63048608500509   -3.30042530940996   -0.08263862312033
H           2.70776347498672   -4.09957384988983    1.50686516139955
H           6.08019559569810   -7.61864223595459   -2.04698211643125
H           9.00082174749159   -6.61448725865056   -7.51018039189490
H           9.40737050534769   -7.43994534844509   -9.81556760252912
H           9.11209806256606   -9.16893989774184  -11.54738884761607
H           7.82449931842916  -11.20990181446741  -11.05432653135570
H           6.82005650868075  -11.53791992134027   -8.83027476172050
H           6.39324740336911  -10.76376341547351   -6.58125717570953
