97
 SCF done       -195.966621655929          0.000617450638
C           3.98511036116056   -5.07607540984237   -7.98759130724855
C           2.77359857883526   -5.71245177761173   -8.00407114699114
C           2.12145633515095   -6.02787504098483   -6.80220466837827
C           2.68959186445720   -5.70467198288055   -5.60007664690816
C           3.93795179053378   -5.05179727881488   -5.54570970564214
C           4.53453218889869   -4.72651601501594   -4.30697633843736
C           5.75000373511353   -4.09542130327142   -4.29243858904680
C           6.39437284610929   -3.74834559807118   -5.51826990141899
C           5.84214517963705   -4.05942095532703   -6.72891292937510
C           4.59816126212332   -4.72713009985492   -6.76775820462399
C           7.64556138483128   -3.03358992334995   -5.23075076030697
O           8.49018338905951   -2.64017533216398   -5.99728297834073
C           7.63277999152663   -2.81933922769237   -3.74352179642079
C           6.59652726039048   -3.67848453684310   -3.18434841965843
C           6.56412030724241   -4.19401343447963   -1.91867938924522
C           7.53358769605679   -3.91688619512358   -0.93278075261391
N           8.32241529348013   -3.74857631681858   -0.11600373944455
C           5.60374336239098   -5.13446590269019   -1.48500820841364
N           4.84898331536891   -5.90240877369421   -1.09082669858906
C           8.40638352323833   -1.86060718585074   -3.19921723033949
C           8.27654904675848   -1.30141259391464   -1.87405839776472
C           7.06905887176028   -1.08950093143243   -1.29736892782144
C           6.87370421356629   -0.55459340666135    0.00770674317540
C           5.58367642392821   -0.37059081511483    0.49959765692394
C           5.34784414110371    0.17690846877303    1.77036672731927
N           5.17244041362029    0.65028416651794    2.80235172949458
C           4.45952092517692   -0.73315892741528   -0.25696269421006
N           3.56087430046293   -1.04749500770882   -0.90114708120276
C           7.99422163755333   -0.24900470545223    0.82786498519277
C           9.29988012959115   -0.38428368687032    0.47510119511333
S           9.79977402679710   -0.87207541282230   -1.13104452149202
C          10.37866001033672   -0.11547946622529    1.39965308957715
C          10.24109011118157   -0.25450404554181    2.79866436703260
C          11.31611449173384    0.07049820022165    3.70612830432345
N          11.06184390991359    0.11035613776903    5.02571741496479
C           9.90598180556644   -0.28602476396161    5.48489142341765
C           8.92760518063053   -0.84413229008598    4.58981480503415
N           9.10524980772411   -0.76959092881681    3.29941896943378
C           7.75894093087432   -1.46736504472947    5.09806504614561
N           6.83252102397454   -1.96976385453154    5.54407560255576
C           9.62760741453336   -0.15220750023768    6.86924725664827
N           9.37164886122673   -0.04536565320198    7.97955460091247
C          12.60347210813963    0.42600233298602    3.24654471645187
C          12.74140234535075    0.54466742025596    1.85519629916105
C          11.65141065321986    0.26821578567553    0.94932121638713
N          12.02028346308764    0.43570742347697   -0.32452966765615
S          13.55423544099228    0.88679453873519   -0.37702922126161
N          13.84809212235370    0.89977621387602    1.19478284579190
C          13.70454445107272    0.68287097521457    4.14853679382385
C          13.79693306594489    0.08264465525168    5.36471444183834
C          14.79382906692245    0.33927843840579    6.34709511727900
C          14.75661246470134   -0.34912223257281    7.55691116509736
C          15.68733344853006   -0.11439897373609    8.58142323156351
N          16.44123754392090    0.08415940582748    9.42496143024858
C          13.78540056527804   -1.33019789734012    7.81465957954161
N          12.99137165003945   -2.13852501577411    8.00496026135356
C          15.81486072987598    1.30349468742224    6.10538071025607
C          15.98902585726278    1.96449029189717    4.93542837231929
S          14.91917958299827    1.79277060894902    3.55257299128774
C          17.02929617059279    2.93756973534259    4.71615333278876
C          18.29642324978651    2.87364382954495    5.18720010976503
C          19.31316086450308    3.90983128250370    5.04334550513150
C          19.08575447172365    5.21912581631292    4.71730804911947
C          20.10018265404990    6.19696730935129    4.62366247634851
N          20.87871593281568    7.03386122265583    4.52399654762444
C          17.81770403061746    5.78039470049887    4.45272229217144
N          16.82004928520290    6.30482661997238    4.23495083675707
C          20.59772720096827    3.32520755149778    5.39460059882390
C          20.39037461810959    1.97599489148388    5.80383496620535
C          21.42290013022228    1.17559391268990    6.20411327539036
C          22.73430778781475    1.69874674095850    6.21561944782168
C          23.83697475324493    0.92432650594713    6.62715746781569
C          25.09998143962364    1.45166177098698    6.62690238312362
C          25.31560133298056    2.77603237908881    6.21614183124596
C          24.26634996118565    3.55559287670167    5.81133920821754
C          22.95196553390240    3.04540805576546    5.79987120937231
C          21.86483592020895    3.84876977829426    5.38862302226942
C          18.96254327272010    1.64210178203227    5.72612199297242
O          18.45017069169999    0.57389835538448    5.96999690831454
H           4.49063996931594   -4.82984396141086   -8.90974687099551
H           2.31042479544946   -5.97510817237286   -8.94320264632062
H           1.16583435545042   -6.52894352237801   -6.83391563749407
H           2.19334086437488   -5.94752352230974   -4.67233215204342
H           4.00959786585157   -4.96898663776216   -3.39622021789998
H           6.34787716109961   -3.79678370419520   -7.64615729429084
H           9.18074722485072   -1.44290076594360   -3.83377579724044
H           6.18046696253130   -1.32956909244896   -1.86810099098936
H           7.77384907310990    0.10775979508290    1.82363882245927
H          13.04181707426581   -0.64421358275853    5.62771702207593
H          16.48718983407711    1.51765182912386    6.92386273854382
H          16.74497248005139    3.76733408982447    4.08018473425887
H          21.23713284749704    0.15797129116332    6.51379685723320
H          23.66470200751612   -0.09396593814714    6.94294492338722
H          25.93978144782019    0.85159294610927    6.94323064282328
H          26.31823003221730    3.17614829789818    6.22296849371922
H          24.42720597174853    4.57615388510475    5.49662012612260
H          22.06253882064030    4.86121734047338    5.07411662094935
