99
 SCF done       -206.715774320114          0.000995304403
C          -2.28988069323953  -10.40739897000949  -13.93871008426299
C          -2.42491036405583  -10.17647085970909  -15.28083494859832
C          -1.70002331031787   -9.14646844962206  -15.89855188112323
C          -0.85084817103727   -8.36185514186787  -15.16663020217075
C          -0.68924780561214   -8.57041715035824  -13.78195461448841
C           0.17754906029089   -7.75446307399137  -13.01855003665127
C           0.30595614068331   -7.98225496888868  -11.67501159164072
C          -0.41702983482040   -9.04560699957177  -11.05871025271268
C          -1.26597831844897   -9.84345065873079  -11.76991074330618
C          -1.42417013623795   -9.61855426701742  -13.15593773993594
C          -0.07476519117375   -9.10173927171791   -9.62771905208056
O          -0.52489630548007   -9.83394630684556   -8.77711224071086
C           1.00633916075690   -8.08793397721841   -9.44301532261148
C           1.07479458386983   -7.28747242729810  -10.64658704979050
C           1.53989617818464   -6.00131591933161  -10.74156432009595
C           2.02414317847608   -5.26465419250435   -9.64242894463648
N           2.38307259493927   -4.61686591166736   -8.76579151427063
C           1.49188339643726   -5.23716805273968  -11.92523511115856
N           1.48964222723454   -4.58200005492440  -12.86778283044569
C           1.74948024866567   -8.12995503607541   -8.30466592396922
C           3.01506883461859   -7.56364871025074   -8.02425897792957
C           4.02220415261995   -7.14722520513255   -8.87497394011528
C           5.15584871672933   -6.69612785013780   -8.20362535027544
Cl          6.55625045195460   -6.12455837959494   -9.00992849824189
C           5.04750995272255   -6.74217252943753   -6.81235408606098
S           3.50879533711332   -7.40439122733701   -6.36390324010773
C           5.99744829642239   -6.31481337688029   -5.85754519308261
C           5.88920211247223   -6.35805038547312   -4.46687903787855
Cl          4.52484099569912   -6.99335556801712   -3.65075802652652
C           6.98817778022098   -5.83825882403979   -3.79375941817361
C           7.96900382403146   -5.38647482858204   -4.65855703215969
S           7.52387169525373   -5.61474252217166   -6.32446269156334
C           9.20409867064069   -4.79001145259394   -4.35739084776225
C          10.13765386695556   -4.37710534983503   -5.31495494258246
C          11.31428584678871   -3.77500393195745   -4.75191811256147
N          12.29144814502443   -3.32825070804177   -5.54569279065429
C          12.12092944173834   -3.47209296168600   -6.84249792012855
C          13.21176244673155   -2.97151488091920   -7.71787561748823
O          14.21663530750848   -2.45484513487082   -7.27769227515261
C          12.98234319991263   -3.14610187542102   -9.16262500637308
C          11.88909342949914   -3.71820689362195   -9.67782554075024
C          10.78078876973288   -4.24387497393889   -8.86233192048911
O           9.80543251810298   -4.77242348455986   -9.35402120489861
C          10.94910133735337   -4.07931434860551   -7.39807577454199
N           9.97694965099303   -4.51937501810494   -6.62809758089192
C          11.27606141793197   -3.73200066114642   -3.35155651803624
S           9.79462832534343   -4.43695146300506   -2.76797411920835
C          12.24886061388677   -3.20408611339658   -2.48158546613644
C          13.44648819573106   -2.60458742505301   -2.82897327372763
C          14.17127179085597   -2.18327578835313   -1.71753050512834
Cl         15.68955889020033   -1.40543006536258   -1.84393299012182
C          13.55905031874103   -2.44615766888646   -0.49099683043766
S          12.03385669728202   -3.24282197416943   -0.75496890877453
C          14.02809172227830   -2.14775206667465    0.80768598417214
C          13.40582830946946   -2.42904114016130    2.02756591604413
Cl         11.89329895273998   -3.22525807768376    2.13701197628357
C          14.11090668132597   -2.01378538099073    3.14893116385485
C          15.30590174454795   -1.39051524257207    2.83520741944080
S          15.53393193903854   -1.34136743029914    1.09788246902808
C          16.33163781811920   -0.82010994209807    3.61812694802316
C          16.46410674241638   -0.66590681294542    4.97091202871467
C          17.62086184682974   -0.03952773027056    5.59976314278430
C          18.78529214502791    0.35754723995562    4.99434272997137
C          19.86725452048274    0.95067815581182    5.68053529209224
N          20.78520675698057    1.43860440847016    6.16761366531555
C          19.11614870674029    0.22992811997151    3.62839594078214
N          19.48586427904315    0.16284283619831    2.54268957933257
C          17.35333697141015    0.06670621474483    7.02985486124672
C          16.09131254955122   -0.53191532645340    7.29684726967726
C          15.56930341664618   -0.59780734585834    8.55651879207800
C          16.30096422258713   -0.05054393233010    9.63314221256591
C          15.81640529466869   -0.08855729169762   10.95525954728629
C          16.54297583132740    0.45138725957858   11.98157642526109
C          17.78520444974317    1.05288519332410   11.72985360693456
C          18.28415596543038    1.10586185420549   10.45677376049407
C          17.56295647152747    0.55876387885270    9.37589130542992
C          18.07724602639902    0.60865613410018    8.05970782122415
C          15.50134619200384   -1.02599878160247    6.04366322213243
O          14.43801216564541   -1.60424173653306    5.94882952628910
H          -2.84527459906560  -11.19883510255711  -13.45710105490713
H          -3.09053488337754  -10.78591106006410  -15.87344482499994
H          -1.81856895119589   -8.97705325109037  -16.95825031417738
H          -0.29372277965781   -7.56530113256303  -15.63748503735787
H           0.72711595066073   -6.97261056569578  -13.51925371261109
H          -1.81156782233978  -10.63676309311567  -11.28099180736325
H           1.32791014092584   -8.74486961497619   -7.51439449327952
H           3.96534113099800   -7.20300769901706   -9.94633288804624
H           7.07091032079132   -5.78954833727728   -2.72348119462348
H          13.77531910003947   -2.77558713814247   -9.79829200855248
H          11.76331782009967   -3.82893951434481  -10.74651655572130
H          13.76382921729466   -2.48522061413898   -3.84888847775511
H          13.76889748454538   -2.15600152594120    4.15787501455470
H          17.14444489908433   -0.43455354866088    3.01372411374429
H          14.60901570694736   -1.06153920528259    8.72701714304217
H          14.85918328523664   -0.55301979873342   11.14205821841046
H          16.16481006710857    0.41806034542644   12.99239029924212
H          18.34558644195244    1.47429516367574   12.55089529475365
H          19.24053765635502    1.56718010603253   10.25883590941996
H          19.03444042187103    1.07910580020802    7.90314181237210
