105
 SCF done       -204.247351018954          0.000752102908
C           1.37401987846087    4.74241060730499   -2.87914066309147
C           0.35798834634690    4.82019821986661   -1.96543631909122
C           0.32742014170217    3.95105374650295   -0.86501206791909
C           1.31203172826033    3.01624086861278   -0.69368502566115
C           2.37184332704865    2.90742189705569   -1.61636868803161
C           3.38644434415911    1.93597852664883   -1.44921228611834
C           4.40050574420657    1.85851709927542   -2.36460646671018
C           4.43747812472674    2.76119510671954   -3.46671376963798
C           3.46739409611128    3.70117263477135   -3.65856614039665
C           2.40381409761602    3.79277529870254   -2.73189003588643
C           5.64683142871197    2.49769058798166   -4.26680340961242
O           5.99071013722946    3.03074242078818   -5.29721922009216
C           6.40623506450514    1.46493164068554   -3.50544280320596
C           5.54306753408942    0.95336911303540   -2.46932021624759
C           5.62649481048234   -0.27338652863414   -1.85648967171206
C           6.59334698407099   -1.24723917901299   -2.16889270714483
N           7.34403180786397   -2.08605784425273   -2.39705779378648
C           4.71371556423736   -0.73308943107419   -0.88730275261423
N           4.02762235859975   -1.14512296831444   -0.06330996840534
C           7.71750942042815    1.26426778655194   -3.83417137167234
C           8.76949747623139    0.67844885154889   -3.10717417060010
C           8.85759177390333    0.36145107537767   -1.75528939078582
C          10.09700582496518   -0.16821757671949   -1.43278086701513
C          10.99157864863466   -0.24852623113179   -2.53667714476453
S          10.27130114151942    0.35047139476730   -3.97469687021306
C          12.17340282805274   -0.79687281032939   -2.05610528143371
C          11.96796278985733   -1.04555852708702   -0.67167101027749
N          10.70629710691359   -0.65532587681330   -0.30836519227918
C          10.09024891805746   -0.79760186900962    0.98133538943802
C          13.07642341377971   -1.59158800223552   -0.04154841295525
C          14.13753062078169   -1.75849590916469   -0.92468218571869
S          13.76462628939450   -1.24171580473002   -2.56267482253162
C          15.42550110871144   -2.26005483560349   -0.60799412889925
C          16.44079220253112   -2.32911441834062   -1.58969392578070
C          17.77654982186613   -2.77401083869826   -1.29235802042612
N          18.69479267254774   -2.79458543671145   -2.26368044620664
C          18.37799902339667   -2.41784380532585   -3.47820344750423
C          17.04539533926268   -1.98392655133815   -3.77631450414571
N          16.13407166970631   -1.95274533526212   -2.83506292229091
C          16.70043691297475   -1.58622085742423   -5.09164524582250
N          16.45847289405290   -1.27116125889825   -6.16585228858374
C          19.36429037842076   -2.44818648873976   -4.49497022106159
N          20.13548921589381   -2.45818241412029   -5.34166912189947
C          18.16961003613947   -3.19174594233206   -0.00001915387074
C          17.14572025586745   -3.16554615254765    0.97840224645443
C          15.80500038849932   -2.70374822584778    0.68251686437773
N          15.02137557919004   -2.75707979790623    1.75948216502522
S          15.86127397460568   -3.32478553202700    3.00446841894884
N          17.26586722018936   -3.53135569120124    2.25447469246244
C          19.50711739469093   -3.58072617696336    0.26658433239842
C          20.01159755443119   -4.02805059617457    1.48273271284801
C          21.37133658282481   -4.29115647730365    1.40532176870145
C          21.92348213972759   -4.03668130656466    0.12040493251139
S          20.72449203762689   -3.49056787244137   -0.99871498120128
C          23.27879091519055   -4.32368253145788    0.21164759930165
C          23.52073084357144   -4.75210164383158    1.54970123155470
N          22.34780174153256   -4.73456492159567    2.25629451169414
C          22.18253474737680   -5.06926917224614    3.64330604408394
C          24.84366244981519   -5.07182454638876    1.80744419730094
C          25.64161366263327   -4.90002111966001    0.68209447999620
S          24.72170951931220   -4.31687635914098   -0.71732374561826
C          27.02236560063448   -5.06733878570793    0.47952797580385
C          27.99797247576589   -5.60979062580386    1.27637025889398
C          29.39891152554915   -5.65698802874110    0.88965664293755
C          30.01000984407031   -4.90461622596795   -0.08035879159232
C          31.38389123090752   -4.98724255081863   -0.38895873789357
N          32.49113243968604   -5.00872525358718   -0.69210880036832
C          29.39120683792306   -3.90742653891160   -0.86388966080929
N          28.97849205987231   -3.05862310401135   -1.51859510273793
C          30.08183778063163   -6.58225071290393    1.78558597127954
C          29.15821082159910   -6.99747707404426    2.78469706315918
C          29.51184678956123   -7.86014896547130    3.78159153448281
C          30.83103392725124   -8.36480224441398    3.81928528169245
C          31.25438938389786   -9.26016115020318    4.82093886945484
C          32.53564100953852   -9.74104610129987    4.83344387471623
C          33.44962326789815   -9.34690309681306    3.84507638676152
C          33.07023221493664   -8.47780554848015    2.85853542016842
C          31.75883825707139   -7.96283046587517    2.81587196672924
C          31.36413154898236   -7.06221948130234    1.79950270198732
C          27.84898780060893   -6.36741501438593    2.54059803422364
O          26.86844324359268   -6.48433558386360    3.25081403318053
H           1.40306232269111    5.40905591585475   -3.72861819224273
H          -0.42708472990892    5.55167055967001   -2.08573007379198
H          -0.48131393789836    4.02498038821884   -0.15342693945991
H           1.29045747702125    2.34212111615725    0.15013461419607
H           3.33954946324018    1.28277684633800   -0.59174267758926
H           3.50941918022367    4.36784096667288   -4.50699294411598
H           8.00156655557970    1.69796652960033   -4.78928255585485
H           8.07177380001444    0.55783112172739   -1.04934116838084
H          10.76940429914874   -1.32983582140249    1.64299195318934
H           9.16045321605704   -1.36393115163977    0.89328176805716
H           9.86663558770412    0.18180650343006    1.41228060148248
H          13.15480062502473   -1.86182310805424    0.99452312285256
H          19.39110728075010   -4.13563669886341    2.35209742336462
H          22.99674440661732   -5.72204163733731    3.95272429791127
H          21.23361998252842   -5.58675163537781    3.78458347630788
H          22.19087790204327   -4.17134058305704    4.26797751125286
H          25.24163788901019   -5.41670438586711    2.74332162032207
H          27.34781317681692   -4.72298430810138   -0.49576033669147
H          28.79314846877947   -8.15658518957031    4.53132393857467
H          30.54609736898111   -9.56047967960718    5.57941931279311
H          32.85158231754848  -10.42782902324782    5.60449849970072
H          34.45672046053411   -9.73547492731737    3.86920361116631
H          33.77065651462290   -8.17005423331190    2.09603433820023
H          32.08844225961446   -6.78159302389598    1.05163116807168
