141
 SCF done       -256.144385202822          0.000287709170
C           0.51249316732182   -4.16750803129032    7.05014959734403
C          -0.71613596617330   -3.56642987519870    7.00095198309113
C          -0.83242382662890   -2.22404979818503    6.61142153565178
C           0.28044520318954   -1.50182779322372    6.27603858027834
C           1.56105808943677   -2.08898964156466    6.31735430955797
C           2.71544473615565   -1.34376377749871    5.98155060336903
C           3.94290439165889   -1.94589512404534    6.03560541680555
C           4.05176261505439   -3.31549674361000    6.41518481733504
C           2.95625554869064   -4.05585477042580    6.75138489610614
C           1.67812004235304   -3.45284872110978    6.71173736401878
C           5.46781634535132   -3.72424920603309    6.35597859549864
O           5.94808236817686   -4.79497780699769    6.65260257427235
C           6.19016349529632   -2.55196957957085    5.79076791094768
C           5.28500543127257   -1.42824449729507    5.78455716627511
C           5.63346443526292   -0.09942360430365    5.80071467829113
C           6.96336270807853    0.35813443864553    5.83751210103438
N           8.02810175329147    0.78267690631737    5.91163013861580
C           4.70654599583935    0.95835311391725    5.86822625168859
N           3.99421825243236    1.85885016163259    5.89625630060735
C           7.46441542437410   -2.72041482197557    5.32667470867220
C           8.18663084578593   -1.93070791947029    4.41202370167221
C           7.72331746599533   -1.00676600298904    3.47664566964868
C           8.71792977709621   -0.45397554710566    2.69038440098271
C           9.98712309614620   -0.95413757396646    3.04430744304441
S           9.92143657677567   -2.12786640270506    4.28957641203003
C          11.07807673745715   -0.41453417948943    2.33605437667652
C          10.75020912153823    0.56149572237354    1.37280680477692
Si          8.89810081171335    0.84388325576701    1.35200239024060
C           8.13839772447455    0.37402365333250   -0.28502707131123
C           6.92497335731185   -0.31409741275573   -0.36244651506455
C           6.34088819212124   -0.60641068444379   -1.58061494883162
C           6.95646656065659   -0.21374525069879   -2.75720989675013
C           8.16059235575344    0.46857099570692   -2.70650593598590
C           8.74198524125797    0.75663932399944   -1.48639419425927
C           8.33905305656983    2.52015263274213    1.94315036233048
C           7.87302759697262    3.48589585028462    1.04569345609850
C           7.44656990370742    4.72478259508800    1.48468606457125
C           7.47085987730740    5.02865922884261    2.83602692779945
C           7.92684792998350    4.08724037946787    3.74367295944392
C           8.35860759026616    2.85078579042213    3.30287537410276
C          11.88356836656596    1.01267264454196    0.71773882476874
C          13.06340176795866    0.41212837122958    1.15265946059394
S          12.76452479101625   -0.73866882452084    2.43154911612501
C          14.37213678419323    0.63567544160804    0.65983218332702
C          15.49350827590069    0.00132910784897    1.24458637927197
C          16.83548839257303    0.20532777904617    0.76459786178059
N          17.85260615425171   -0.41704569196443    1.36922589225072
C          17.62634884947743   -1.21073718727338    2.38830244146176
C          16.29096040847380   -1.41908746425265    2.86086707267802
N          15.28153159463415   -0.81386355265754    2.28231927523997
C          16.04411457084761   -2.28336253292982    3.95559953344826
N          15.87760633069727   -2.98989597429853    4.84160934121123
C          18.71617041520831   -1.86535843187528    3.01306563935017
N          19.57190679570658   -2.41550210373055    3.53925184735644
C          17.12890795310982    1.03752271268467   -0.34109551357719
C          16.00828761077861    1.66695669947442   -0.93726786124838
C          14.66133765347149    1.47755390203406   -0.44229956601650
N          13.77556803964239    2.16881426857001   -1.15874183450522
S          14.53824972938211    2.97019152770188   -2.32240402497541
N          16.03207515775973    2.48638924310646   -1.98775919997125
C          18.45821361700717    1.20409296976812   -0.80221751530430
C          18.88300198999188    1.93885677657177   -1.90753396888228
C          20.25211513030247    1.90368599803747   -2.11155847037033
C          20.89173189812107    1.13038216805972   -1.12195856098072
S          19.79992422549859    0.44620627620654    0.01910590862947
C          22.29344226038150    1.04597036781786   -1.23283520496793
C          22.86379477829617    1.73092904142822   -2.32795932507273
Si         21.51567935156368    2.56667240554675   -3.32467250311852
C          21.32663656628158    1.85966460364239   -5.03786426871544
C          20.10228161206214    1.37726169857489   -5.50761977261108
C          19.97021972040378    0.88956791000041   -6.79446102540218
C          21.06251366613681    0.87132135832192   -7.64530016773752
C          22.28720809803520    1.34164559012588   -7.20045635962167
C          22.41621874670473    1.82916073444656   -5.91399309080311
C          21.66710736935291    4.42507764982305   -3.32247496058615
C          21.47929082864428    5.16971755200176   -4.48951717040226
C          21.59963854350334    6.54674054853202   -4.48863801271908
C          21.91229051218446    7.21507796414940   -3.31686640655516
C          22.10283932808769    6.49818777192601   -2.14678345388876
C          21.98119706592394    5.12207482823036   -2.15101553440352
C          24.24007639099734    1.59721634316363   -2.35410984675810
C          24.75290375463049    0.82798871917373   -1.31139656934656
S          23.45958031232123    0.26309401317195   -0.25644652237376
C          26.06283433096545    0.47688283817256   -0.94525742543269
C          27.26082871385656    0.64285585279724   -1.59383270159630
C          28.53488808099787    0.25277161078983   -1.01420282844035
C          28.79399294555660   -0.00254120478007    0.30872499268578
C          30.06379626412048   -0.36231228781975    0.80557791920866
N          31.06806572579648   -0.66483876233884    1.27315798524198
C          27.86864915512917    0.10931664367902    1.36774180006632
N          27.19141483668142    0.20661172062286    2.29062298726820
C          29.53668784413372    0.27131389490640   -2.07362619114725
C          28.92544189638513    0.77543312958043   -3.25480739873896
C          29.61953912506594    0.92656242321256   -4.42004248970491
C          30.98484938397001    0.56497094666463   -4.45958525990592
C          31.75353690555736    0.69666358818686   -5.63256037617530
C          33.07338892199741    0.33519670905064   -5.64841680198463
C          33.68214455334947   -0.17331130752932   -4.49153433374147
C          32.96324287289269   -0.31341762483202   -3.33565964432632
C          31.60222021888402    0.04956328676700   -3.28394946715284
C          30.85721169524279   -0.09048557997142   -2.09000558726172
C          27.50553497735705    1.07018610315621   -2.99089483110379
O          26.72657642111944    1.54893583612946   -3.79196805861385
H           0.60826738365242   -5.20099718467480    7.34954636062584
H          -1.60446635067408   -4.12197733729321    7.26198117511711
H          -1.80880809556141   -1.76412044141606    6.57912839857332
H           0.19644551566129   -0.46672637765107    5.97869606583864
H           2.59800656208436   -0.31447606271182    5.67976082183329
H           3.06142198882486   -5.08955822848937    7.04546322368110
H           7.95038522079829   -3.63276695951026    5.65956352690107
H           6.67749834933886   -0.78261555051509    3.35764948313075
H           6.43732760230691   -0.62356355319032    0.55075913238763
H           5.40249174468187   -1.14075629379461   -1.61430577088796
H           6.50043407886657   -0.43969341748130   -3.70987183749904
H           8.64620200444086    0.77635812702766   -3.62137016953943
H           9.68307276954047    1.28635365225396   -1.45536416000357
H           7.84119222715220    3.25122025400339   -0.00925389736246
H           7.08923157106605    5.45463885730106    0.77250559658686
H           7.13154298992281    5.99450988810835    3.18032694712571
H           7.94256243236412    4.31324222798206    4.79946839092899
H           8.70354212318908    2.12286463063937    4.02294115546601
H          11.88941464127441    1.75734292706080   -0.05653546605871
H          18.18656349601586    2.47641060896044   -2.52436618614567
H          19.24578722589736    1.38606734488665   -4.84884216030316
H          19.01326578611103    0.52159354843500   -7.13575226890602
H          20.96039151060212    0.48995825301969   -8.65078429845060
H          23.14347087574252    1.32700801657253   -7.85885582488978
H          23.37529840969625    2.19178962001794   -5.57413257499845
H          21.23878489003394    4.65338673457715   -5.40815335053157
H          21.45127123753565    7.10100596669182   -5.40410291331550
H          22.00896811477161    8.29085885318359   -3.31520415272586
H          22.34888079405922    7.01506667611304   -1.23058023981667
H          22.13376419135734    4.56893763908174   -1.23474487717734
H          24.87641381615553    2.03561040782439   -3.09992051604367
H          26.11311462781750   -0.03255758072971    0.01058463723285
H          29.13231147305043    1.31585396084803   -5.30181040046741
H          31.27912817968582    1.08876345581884   -6.52047253850559
H          33.65525056537668    0.43886228124950   -6.55217777614918
H          34.72448583489342   -0.45358949801091   -4.52058020114917
H          33.42783839385388   -0.70310264265237   -2.44175678932734
H          31.35283151210440   -0.48847312504274   -1.21903021221718
