97
 SCF done       -193.657853112207          0.000482930010
C          -0.00371437532831    2.51995822253284   -4.90824545157903
C          -0.36051362322785    2.51937401205954   -6.22951809451300
C           0.62010379267911    2.41592675493744   -7.22686982073920
C           1.94255698865823    2.31541276131383   -6.88959126827385
C           2.34537545644091    2.31464462428063   -5.53897150953424
C           3.71199767535300    2.22115073252879   -5.18524080808994
C           4.06646523148863    2.22294575349294   -3.86378476414419
C           3.06176379942628    2.30718762410373   -2.85565239185420
C           1.73749505251680    2.40835711036964   -3.16774833226474
C           1.34823701957345    2.41673318480599   -4.52683870711630
C           3.70326368930416    2.25214569627437   -1.52946721642767
O           3.17859337850099    2.34716921854350   -0.44145192224279
C           5.14555137931127    2.00243717845513   -1.80066241497876
C           5.37199979885751    2.17544869143761   -3.21361678772718
C           6.57227951058408    2.45736843279248   -3.81683269020923
C           7.76295010308499    2.68547589850660   -3.10138616307690
N           8.74575696028212    2.91504758933019   -2.55313957168921
C           6.74130275625405    2.61435875821802   -5.20473602944280
N           6.94872409196277    2.71798136106683   -6.32997822199207
C           5.94492073211167    1.60571723897751   -0.76812456055872
C           7.21125337882807    0.96832120608897   -0.77445254461307
C           7.68715075643937    0.18313372426709   -1.83973454518467
C           8.96826824578902   -0.49128209619023   -1.79054194018087
N           9.17694778755655   -1.23505862694260   -2.88588990878205
S           7.92962776218511   -1.08308760911800   -3.86602708140586
N           7.03264378858592   -0.09705995397860   -2.97373675750087
C           9.81718678378975   -0.41377424569961   -0.67931193872491
C           9.34555876249047    0.35072958350639    0.41146632573594
C          10.02381578800540    0.62583953317623    1.58498815134527
S           9.14034308869654    1.63992268376010    2.61522897189758
C           7.84407720285382    1.75690211025320    1.51659687797629
C           8.06184819667424    1.02570161406371    0.36966350815175
C          11.09476106258537   -1.08930676474286   -0.69282075291746
C          11.95293972313723   -0.98000769164377   -1.80870166627265
C          13.19126252107706   -1.70085021248251   -1.88812352134632
N          13.99599074649628   -1.52696585967652   -2.96086961705740
C          13.61779305372807   -0.71765578609160   -3.90363537344474
C          12.40688703477444    0.00984155844314   -3.81294276212849
N          11.61714662900329   -0.11526887636038   -2.79066709090355
C          13.62253561385041   -2.55124677923629   -0.84581984369689
C          12.77079979820571   -2.65558480524047    0.26592564222088
C          11.52662389610738   -1.92277030984799    0.34921623248403
N          10.85309691262663   -2.22180238287954    1.46782235906102
S          11.68902700160823   -3.30463015305138    2.30160865532982
N          12.93427464031832   -3.46782184906947    1.31558815813368
C          14.90048003654863   -3.22322574116192   -0.87243779402591
C          15.74402895133379   -3.17676016820202    0.24914032738565
C          17.08397097242382   -3.72519272547236    0.21965240653802
N          17.72838590981598   -3.51617757148997    1.37209490139911
S          16.75968951793869   -2.72396902431427    2.37265398359028
N          15.48801168520643   -2.57458091560003    1.41814089439880
C          17.64278159108775   -4.29919460166774   -0.93934341967814
C          16.74704186917759   -4.46132913878014   -2.03169830219273
C          16.97000128187500   -5.17953428832803   -3.18455102503822
S          15.61250908947553   -5.19382764409486   -4.20892160617214
C          14.69203713535987   -4.25946359414368   -3.13554846438082
C          15.39962951115188   -3.92135393259696   -1.99610788581294
C          19.00565345195380   -4.68909790833728   -0.90854152106136
C          19.91960301436455   -4.64610804748672   -1.92628951562157
C          21.27613800621515   -5.14699091468998   -1.84393505258427
C          21.73597541967770   -6.07642520571822   -0.94588360852714
C          23.06110074620299   -6.55481550465373   -0.91683690878842
N          24.12732521428602   -6.97452078988495   -0.83941748338148
C          20.93503403338460   -6.71435329226337    0.02401731320914
N          20.34087476035343   -7.30310673556094    0.81105408901702
C          22.03673617335754   -4.57130826918072   -2.94579294427755
C          21.14859449282534   -3.79886640904657   -3.74702502657088
C          21.57675879850156   -3.13292770530409   -4.85820657363793
C          22.94033173053612   -3.20706666336345   -5.22364364511271
C          23.44111238227644   -2.53635501790113   -6.35630451161823
C          24.76791908041700   -2.61061611216025   -6.68409108937953
C          25.65117511405348   -3.36136629626760   -5.89467884297008
C          25.19579071421566   -4.02740095585034   -4.78927611439693
C          23.83620185874977   -3.97146393118689   -4.42239531488529
C          23.36197170404117   -4.65498182442074   -3.27838803303882
C          19.79426826609961   -3.83475208527395   -3.16187800068084
O          18.81544885198412   -3.24753211699950   -3.57629249644160
H          -0.75442994963306    2.59918345924632   -4.13540947439975
H          -1.39953317350261    2.59832042151534   -6.51283582877948
H           0.32241183041015    2.41722546710512   -8.26486118664378
H           2.70141172191216    2.23893323722704   -7.65458351851293
H           4.44650713414225    2.14074574052916   -5.97138625220831
H           0.99326426213952    2.48179354913533   -2.38858061846273
H           5.49516892998765    1.74592711577255    0.21031395916707
H          10.99531767489386    0.28517325568302    1.87542879158659
H           7.00108829835170    2.36857076412068    1.76484404189676
H          14.28775479855339   -0.60628299679663   -4.74520973793691
H          12.11098809788814    0.71802940297211   -4.57463685548823
H          17.84818737191420   -5.72541467363587   -3.46107326262454
H          13.67352468570617   -4.02649876683014   -3.36742501567924
H          19.36250868438010   -4.95514856431683    0.08039346062271
H          20.88448798072662   -2.55320224356452   -5.45075095385292
H          22.75633946582400   -1.95868776475663   -6.96009267023725
H          25.14381996518829   -2.09024573459561   -7.55241984787578
H          26.69509185550710   -3.40932803115071   -6.16638274691435
H          25.87178206944886   -4.60804602971604   -4.17874925995502
H          24.06449733817475   -5.22019133183112   -2.68639457102645
