119
 SCF done       -224.765818109990          0.000526488099
C          21.96297122803168  -10.10843597030242    7.29338689837061
C          22.30775361825922   -9.35072549221778    8.37957593476897
C          22.00636991879399   -7.98099872553539    8.41224928314085
C          21.36452905761180   -7.38786569574341    7.35939555988557
C          20.99615348434630   -8.13798524873136    6.22419917597450
C          20.33976067216642   -7.52821118157580    5.13045197455692
C          19.99750176934934   -8.28694486550131    4.04358776143592
C          20.28852739834543   -9.68230923311028    4.02658191976552
C          20.92832782392080  -10.29528399802467    5.06497467245085
C          21.30111857766815   -9.52970694635139    6.19263881178765
C          19.77497963096280  -10.26965325180487    2.77823745831371
O          19.88532950960685  -11.40630724572145    2.38287957568992
C          19.01928687620461   -9.16673629067406    2.10697018333539
C          19.35004288927710   -7.92992220566659    2.78494180792615
C          19.29770003346131   -6.66280606706112    2.26610018357436
C          18.87563518942904   -6.34666591962353    0.96080179835544
N          18.55739041979337   -6.01063888734983   -0.09036526614267
C          19.72318117651810   -5.50960007328548    2.95852718800033
N          20.03273010656287   -4.53069852133145    3.47178720726076
C          18.13368669075059   -9.50133298886158    1.13290302891657
C          17.05699192878523   -8.75770369475887    0.58627087338008
C          16.41422245393075   -7.65228319235054    1.08539764197702
C          15.36111240409584   -7.20132151582303    0.26852815033840
C          15.18208879068194   -8.01634825857283   -0.87697898510279
S          16.32788642204173   -9.31621049882693   -0.90986902701555
C          14.19004837205483   -7.78351765000953   -1.82130051620590
S          14.08829630221292   -8.88850495003724   -3.18546972783580
C          12.30061190483319   -9.15726922265543   -3.42454043876139
C          13.37578279783816   -6.65037343323628   -1.63854595214041
C          13.57327824318066   -5.82823122873477   -0.48667528952573
C          14.53905807181115   -6.08133437231523    0.45802206480470
S          14.78785771584688   -5.00007294142829    1.85002334627131
C          15.91474722049414   -3.81741504342387    1.04297117888544
S          12.48917869369845   -4.46896781593171   -0.46736504689929
C          11.78769995315776   -4.98542023481742   -1.98885426465647
C          12.36392118749633   -6.13787463783887   -2.46998202633016
C          10.74210794085033   -4.26985332422265   -2.60769286904796
C          10.03233283788184   -4.64986952180481   -3.75506426543203
C           9.01600393546816   -3.69892419875724   -4.12862116252458
N           8.26854460278110   -3.88320530098991   -5.21797968147313
C           8.47960610564513   -4.98148084315296   -5.91423143917751
C           7.66708881918858   -5.17025767593671   -7.13489584866367
O           6.86437560332419   -4.34051808639551   -7.52179685006110
C           7.90607111178430   -6.42837288682119   -7.85583622215752
C           8.80286769366182   -7.34468812103426   -7.47020930454933
C           9.64314858071863   -7.20508748833234   -6.27303940820604
O          10.43353309368429   -8.06416889857256   -5.92708249409443
C           9.45108322261385   -5.95056274048232   -5.51349251300819
N          10.21459402650552   -5.77042904071054   -4.45575312371880
C           8.94406423577771   -2.60637050757897   -3.25395509258366
S          10.13883085250728   -2.75987850625901   -2.00593615852292
C           8.04596831438095   -1.52253127057381   -3.33491676344768
C           6.99752286186014   -1.40417267406227   -4.21404071161393
C           6.26557061300231   -0.21264730631057   -4.06609234457176
C           6.76433448011801    0.60282309329832   -3.00334569544037
S           8.16825638510463   -0.14120609982480   -2.27064277826404
C           6.17305966507710    1.79919705426702   -2.64188772980178
S           6.72822409186250    2.91742557864460   -1.39964447849678
C           7.38702034852347    1.86141696465749   -0.07288609594620
C           5.03650754341414    2.20429795456343   -3.38052250424604
C           4.55031529834858    1.39863515354515   -4.44114636360530
C           5.15401756466255    0.20898552558254   -4.81824449712516
S           4.44330414857488   -0.69583188618452   -6.15053275598774
C           5.87419891639591   -1.19645129541305   -7.16686252209253
S           3.15480923206825    2.10003559499787   -5.18514992644347
C           3.22665311034325    3.48174613953237   -4.09227153302757
C           4.27112461977031    3.37129250259901   -3.20521313332726
C           2.20659385752287    4.45168687958618   -4.24455867499449
C           2.09003411236040    5.71177152764693   -3.73512183964919
C           0.94979426026592    6.57951838895049   -3.99844309752809
C          -0.29661294615544    6.18614989965642   -4.40801497282560
C          -1.36881122734683    7.07673540156677   -4.62703801375825
N          -2.27675258178940    7.74981720823986   -4.82788239869973
C          -0.70785208588588    4.85149745003174   -4.61400898136377
N          -1.13123284055287    3.79591261890159   -4.77308835211757
C           1.33571557800937    7.94192978441746   -3.65671214866366
C           2.62927956079372    7.90527750654288   -3.06495004684132
C           3.25769214808659    9.03670541385971   -2.63108172854546
C           2.60983549238032   10.28325510126395   -2.77970768557828
C           3.20972318324174   11.48535847921178   -2.35590992368407
C           2.56534700012724   12.68225989178742   -2.51387270223231
C           1.29214059669409   12.72915107160812   -3.10122479336439
C           0.68173175690835   11.57969876789499   -3.52359192798349
C           1.31699380365966   10.32967445818418   -3.37711319037096
C           0.68953696425429    9.13983668520560   -3.81217107529775
C           3.11749426869582    6.51550214408199   -3.02095300633879
O           4.15257288640818    6.14332498495160   -2.51182843920004
H          22.19179076582319  -11.16362389505832    7.26276657127601
H          22.81375936631131   -9.80261954528756    9.21950166739428
H          22.28599608119034   -7.39747413861786    9.27649390501507
H          21.13317272947451   -6.33301224368890    7.37865624282093
H          20.11115909228696   -6.47528573006760    5.18595813867315
H          21.14573023167206  -11.35235027751834    5.02822159541927
H          18.22974116272231  -10.51992271647859    0.76763189412544
H          16.64308257234726   -7.19347693820851    2.03056774121414
H          11.93652956157830   -8.61078312184102   -4.28949018014759
H          11.77290274521728   -8.86843040516769   -2.52311594627720
H          12.18653302360023  -10.22337460557475   -3.59811577415712
H          16.74127124596552   -4.35906907585761    0.59150595009638
H          16.27652132528032   -3.15745797404104    1.82416904623759
H          15.36689770000567   -3.25200146545737    0.29520256061862
H          12.05832365318699   -6.55958418678739   -3.40844777712248
H           7.30365572535423   -6.57085773709057   -8.74276855597454
H           8.95105984586501   -8.25676465196728   -8.03232020501238
H           6.77056743169629   -2.18154801617004   -4.91833931526980
H           8.41870306832163    1.58714210494400   -0.26873600312586
H           6.76188664244748    0.98217585753913    0.03583941282318
H           7.33125612942350    2.46974214075164    0.82493436548957
H           5.60052677491709   -0.97219040934610   -8.19372737035544
H           6.06287013851374   -2.26129921040282   -7.06713498492973
H           6.73986694339221   -0.61306628880628   -6.87583309258945
H           4.48458291915877    4.10686216953948   -2.45158324029463
H           1.41652695314905    4.12925246419888   -4.91407737947495
H           4.23849701692228    8.98065354488255   -2.18257427183921
H           4.19018057505209   11.44268964707767   -1.90444358487642
H           3.03298685523915   13.59922288992493   -2.18763920137924
H           0.79702962819510   13.68157997814150   -3.21747339830859
H          -0.29902759858792   11.61054782165925   -3.97512470873999
H          -0.28582248199939    9.20854996494248   -4.26710197347443
