110
 SCF done       -208.877320256731          0.000499893519
C          -0.21703352190525    3.30759063543322   -2.70114378169131
C          -1.14609678241530    3.50406823748177   -1.71563989796393
C          -1.05718073834673    2.79706159210084   -0.50732074759969
C          -0.04123103173355    1.90388191449953   -0.30084245175434
C           0.93164815072087    1.67582257881545   -1.29488887076536
C           1.97901892881347    0.74806386954849   -1.08920634294474
C           2.90554071663292    0.55272527308752   -2.07697142767239
C           2.82329611821223    1.29208286308282   -3.29303011636801
C           1.81809191777036    2.18679903648725   -3.52158833106712
C           0.84195443008272    2.39612472532724   -2.52118127056991
C           3.96492226032930    0.93840920424046   -4.15322322093376
O           4.20388751670823    1.31671790394713   -5.27739610070619
C           4.82418493693543    0.04869633564224   -3.31751060131454
C           4.05995219180408   -0.33777237519991   -2.15129014595644
C           4.22120825981326   -1.47483419368393   -1.40142129557978
C           5.22180634277812   -2.43528509936832   -1.64072213025665
N           6.01255649768254   -3.24909494520522   -1.81818183066896
C           3.34464872812512   -1.86187112162488   -0.36637274013705
N           2.65953391816185   -2.22564117545395    0.47930856981405
C           6.11284279464246   -0.15795956601833   -3.70861991595411
C           7.21498867062005   -0.59804877607045   -2.94636788937358
C           7.36772319927021   -0.64207659836097   -1.56737584268594
C           8.62615632070144   -1.08954718224704   -1.19114620150465
C           9.45747939082392   -1.38696761855815   -2.29134384539176
S           8.68444157871238   -1.10075838790402   -3.77880922451013
C          10.70993715467869   -1.82869300721982   -1.79690305748549
C          10.66664396130130   -1.81902755806032   -0.39136857871771
C           9.35322890534759   -1.36790605737831    0.03508598693196
C           8.88781385732232   -1.24847380080606    1.31217528214962
C           9.68377872208291   -1.56163816483647    2.43278216093037
N          10.33125720131585   -1.80989940420088    3.34630087657356
C           7.57777029624488   -0.79764112110770    1.57861887132879
N           6.51381580847393   -0.41992115204289    1.77985325558098
C          11.86740061654570   -2.21168242336753    0.19452560401879
C          12.83671807872280   -2.51688704087560   -0.74142385353452
S          12.23045536522868   -2.32514225391142   -2.38782251132640
C          14.20234091304616   -2.89562757082832   -0.52236884537628
C          15.06281931404241   -3.08675882434796   -1.59680079845304
C          16.40686871192453   -3.36338347698404   -1.42665591353590
C          16.98977424532374   -3.47148417141322   -0.16963957326630
C          16.12776205314461   -3.34605516542174    0.96363775641988
C          14.74776838063774   -3.05771415545728    0.78892393290174
N          13.95636488478962   -2.93434503431614    1.87104542292000
C          14.45102442365384   -3.08236278215389    3.07163802482182
C          15.83490686341392   -3.37873214669902    3.24671097010208
N          16.61897487396837   -3.49833249490676    2.20786796893754
C          16.43399538509831   -3.56474722717060    4.59677374298425
C          13.52607468569174   -2.93520437723414    4.22890823440355
C          18.40547996950612   -3.65796024714463   -0.03762043187985
C          19.16415856570542   -3.70419429926529    1.11648500926206
C          20.52715702312994   -3.81700963943134    0.85389660054859
C          20.81956904644449   -3.86677070778255   -0.52040010162786
S          19.41240968138707   -3.77996958119792   -1.48122778531380
C          22.22451908923528   -3.92991705764879   -0.68102104983013
C          22.82390576217076   -3.90689332269819    0.59800359763127
C          21.77344172223719   -3.86770645160163    1.60195524033398
C          21.91477078047974   -3.88995480207543    2.95823131718776
C          23.17149521845971   -3.98230264450312    3.59499726111904
N          24.17860866766134   -4.07867814340925    4.13367344624967
C          20.80179918036602   -3.85026504664004    3.82385469953071
N          19.90314247650669   -3.81629381084805    4.53570088462784
C          24.21174326336412   -3.88808929184274    0.54990674786194
C          24.68979972083005   -3.90243645972103   -0.75303956052435
S          23.37376000121399   -3.98495920936540   -1.93191780630788
C          26.00702265743562   -3.89418339409669   -1.25691196721644
C          27.13609594384639   -3.42048835255612   -0.64905761789568
C          28.47670357959829   -3.52863453006561   -1.19279074228979
C          28.89218654928610   -4.41752650082750   -2.15063331848313
C          30.21684989999569   -4.50057858648742   -2.62664377276578
N          31.27484835034896   -4.61194976438436   -3.05835186538378
C          28.06952477246057   -5.38823154618058   -2.75901546034672
N          27.46223324201967   -6.21377928511057   -3.27770015698669
C          29.32701781406778   -2.58657899237653   -0.47717486472350
C          28.55247247475780   -1.96918671934862    0.54549900495637
C          29.08037250844642   -1.03052096209411    1.38399587328443
C          30.43483836078800   -0.65753878058758    1.23319085929544
C          31.03420769116328    0.30745276639645    2.06607584931606
C          32.34568569049610    0.66014779231796    1.89648902776015
C          33.11546330325158    0.06120276631967    0.88827932347074
C          32.56370969288558   -0.88084184386395    0.06319929051701
C          31.21579901706400   -1.26683055704782    0.20889238605254
C          30.64100088770536   -2.23784307916999   -0.64336564959175
C          27.17586766527677   -2.49240802220482    0.51124922932402
O          26.26273184307458   -2.16124399824926    1.23720430290631
H          -0.28003095210513    3.84963683164039   -3.63343462145018
H          -1.95383805150607    4.20558227762075   -1.86166177899739
H          -1.79859064873128    2.96350947098057    0.25973077035590
H           0.02994316407202    1.35488839090517    0.62653425867664
H           2.03169241719318    0.22479256442629   -0.14724006418782
H           1.76863935896885    2.73128461502941   -4.45285632792415
H           6.32703449924697    0.13349440392359   -4.73275107206084
H           6.60823573740287   -0.31224091433236   -0.88244901817753
H          12.06644707738308   -2.27710571902545    1.24774614780657
H          14.67577269043518   -2.99453194259447   -2.60149289060934
H          17.02733022992982   -3.47739031776800   -2.30404483291428
H          15.96142294962979   -4.40532733023002    5.10302798464795
H          16.27190453500350   -2.67698016882438    5.20601448906679
H          17.50104034800820   -3.75109349015676    4.51275232797120
H          12.52637007596183   -2.68741021283850    3.88301557400215
H          13.87952654963073   -2.14979925277736    4.89518561089685
H          13.48914602885093   -3.86231279183069    4.79913640473935
H          18.70823851009532   -3.64403172493298    2.08685082683566
H          24.85524591440586   -3.87117219126870    1.40886273746440
H          26.10289827796699   -4.26627077686301   -2.27070807163129
H          28.47159183394736   -0.57856888655374    2.15296221762390
H          30.43627187139820    0.76490974943578    2.84071366321889
H          32.79673676675627    1.40252392841004    2.53783139923967
H          34.14887910368037    0.35008356518450    0.76839204476359
H          33.15289404657405   -1.34573082941205   -0.71363227692745
H          31.25498005476786   -2.67517466307674   -1.41475260874970
