97
 SCF done       -190.330272886405          0.000692388953
C          -0.49443688836939    3.41355838752145   -1.05571330128672
C          -1.25135639049150    3.71031629430482    0.04521453675288
C          -0.96947668721682    3.11021768109910    1.28146836148913
C           0.06487720063071    2.22223170953215    1.40022835958037
C           0.86376460296856    1.89279070513606    0.28670557431160
C           1.92940255738186    0.97057560669379    0.40288475592078
C           2.68400932731800    0.67551675740112   -0.69982214418419
C           2.40755786093908    1.30649192217028   -1.94804749461161
C           1.37949637472188    2.19329533648932   -2.09031153597308
C           0.57820760442034    2.50443215124196   -0.96843268431338
C           3.39519180235516    0.86178366178508   -2.94554407325408
O           3.44998832747249    1.13447878362687   -4.12281339669440
C           4.37973451108669    0.03948273400519   -2.18086352219562
C           3.81120298353028   -0.23406826817983   -0.87782882077393
C           4.09034174458001   -1.30386603296877   -0.06672620164121
C           5.04445689579624   -2.29240102447561   -0.37319487706775
N           5.80064348932066   -3.12747517704244   -0.59648107492824
C           3.38765626564014   -1.58975874146707    1.12262856603408
N           2.84298822403221   -1.87232421242552    2.09222686552292
C           5.59229069805041   -0.21477950672139   -2.74581773668943
C           6.79621062475802   -0.59673508820465   -2.11508286577175
C           7.14813095432634   -0.49373403024956   -0.77705886629341
C           8.44316718228793   -0.93205652337485   -0.53808122900292
C           9.10038716494142   -1.37085780491606   -1.70561148086635
S           8.12130951436798   -1.22593807033682   -3.08956809145608
C          10.40374604483621   -1.79613419241209   -1.34813656140815
C          10.56835915321914   -1.63268219493715    0.03877851902731
C           9.33517899615444   -1.09773213975029    0.59538636479509
C           9.05401568657165   -0.83230722065002    1.90286455441731
C           9.99575157115289   -1.03985986824679    2.93278909066643
N          10.76608871831969   -1.20234715440627    3.76592213023659
C           7.79551556285599   -0.32871792003935    2.29549586807055
N           6.77148537445101    0.08870194640453    2.59849461608438
C          11.83396298398003   -2.00722031052544    0.48492517730852
C          12.63694148604641   -2.45187366442237   -0.55062630094589
S          11.80801256355055   -2.41667482753910   -2.09882580103042
C          13.98834111902382   -2.87244845928726   -0.46783028067598
C          14.81623123500487   -3.30279459907690   -1.48630378898024
C          16.10623647390556   -3.60291175490895   -1.05856371252371
C          16.29229621208924   -3.40949469132635    0.29638637437665
S          14.82890963973569   -2.85153190748721    1.05581133968841
C          17.47783574081654   -3.57872117138681    1.05498183213373
C          17.63624743228281   -3.37768848175876    2.41522919506766
C          18.95044940319369   -3.59215873872966    2.82462449372953
C          19.80026969311935   -3.96199768191994    1.76729613722980
S          18.97587812199890   -4.05351251690300    0.27156757416080
C          21.11184074625188   -4.12204334979498    2.27333530410345
C          21.09343527990470   -3.84704224064824    3.65883935544328
C          19.73067549928654   -3.53250986618183    4.05297316503848
C          19.26970173975521   -3.26042887446284    5.30629334766218
C          20.09927737757107   -3.27985568124866    6.44907968404590
N          20.74441907789398   -3.31507192343646    7.39560390796467
C          17.91164845235456   -2.96347032813841    5.55285414142951
N          16.80760050792599   -2.72350748451749    5.74681265354985
C          22.34940316936347   -3.91639789893915    4.24671820182565
C          23.33912432524095   -4.24378644020415    3.33001817979955
S          22.66967908408794   -4.50612460002033    1.71259130877997
C          24.72810909770833   -4.43417576134502    3.48020872657903
C          25.55339190098056   -3.99545569189741    4.47809070711598
C          26.96242119962729   -4.33046952002164    4.58429175884345
C          27.60070103035792   -5.37005016804212    3.95774108254664
C          28.97177020016388   -5.66136751539960    4.11410223264365
N          30.08129211615539   -5.94552689287898    4.19321221678186
C          26.98154206755606   -6.30967640912509    3.10741096345314
N          26.54218742425930   -7.12024238257936    2.42220787392356
C          27.56811628976298   -3.42094273515369    5.54819968950728
C          26.54415877876125   -2.59466559288844    6.09124845504575
C          26.80678982322085   -1.64037751033636    7.03108077039243
C          28.13534393619357   -1.46256027289853    7.47740961424234
C          28.46844448113838   -0.49366144790221    8.44404519832317
C          29.76396905362057   -0.33236705616259    8.85478310363775
C          30.78212244533162   -1.13448138159740    8.31825128843326
C          30.49155436847232   -2.08640686486054    7.37908029154648
C          29.16832766481550   -2.27918308971361    6.93285281275186
C          28.86400771825451   -3.26179784572382    5.96260451271100
C          25.25043980159764   -2.93820968089927    5.47806899920683
O          24.18571080958494   -2.40465816526911    5.70673903592723
H          -0.70651391199100    3.87314562948235   -2.01001949593973
H          -2.07067617592244    4.40947647314128   -0.03049680907022
H          -1.57668345367121    3.35500777102150    2.14000311823065
H           0.28427489756664    1.75526349000144    2.34903136092916
H           2.13362872940155    0.53125595169792    1.36681620650014
H           1.18079525182512    2.65518052398293   -3.04599225356563
H           5.64865997530400   -0.02174214444557   -3.81289684010880
H           6.49929892869023   -0.07216781224625   -0.03144978557189
H          12.17376343227278   -1.96075771522827    1.50407446871739
H          14.48389365742653   -3.38743941683882   -2.50577632252128
H          16.89176056637831   -3.94771764354366   -1.70745610866270
H          16.82395229311040   -3.08320606579528    3.05516291895526
H          22.55226017754713   -3.73713634748844    5.28560003316422
H          25.18946004145358   -4.97218265430966    2.65979775834292
H          26.00981726047271   -1.02986708350287    7.42889089038606
H          27.67986099914197    0.12063147943053    8.85338830290274
H          30.01117118980361    0.41410644277468    9.59472744444771
H          31.79895574527291   -0.99449799955391    8.65322543987557
H          31.27200266079248   -2.70749159811561    6.96451520079369
H          29.66894311095806   -3.85957630960714    5.56537144380923
