100
 SCF done       -200.605324147850          0.000727679917
C          -0.15095352627733    4.06473989339473    0.48127550050852
C          -0.93937117769236    4.02533950066111    1.59918601222073
C          -0.66656586284179    3.10958087656380    2.62629467683994
C           0.38977720694366    2.24599131605891    2.52175238856121
C           1.22128123181571    2.25807991820229    1.38363679551919
C           2.30919076787177    1.36207149136250    1.26718117552990
C           3.09509528327491    1.40280818725539    0.14758088188509
C           2.82799782000394    2.35378599835073   -0.88040610540011
C           1.77890857111298    3.22338737324916   -0.79845202161747
C           0.94513600320537    3.19069842190343    0.34201241575023
C           3.84797396651441    2.22796783020595   -1.93412019461957
O           3.92070184373902    2.82249819413760   -2.98486501046502
C           4.83692264388222    1.23966095308868   -1.40680223532558
C           4.24725193502406    0.59907681150285   -0.24986779118421
C           4.53232668659510   -0.65192961562532    0.23338502582815
C           5.50809023508209   -1.50287227293488   -0.31913423691530
N           6.28199425188740   -2.23189686079804   -0.75324904419827
C           3.81285638241297   -1.27052533999959    1.27756142145665
N           3.25722637792548   -1.82015638106629    2.11769016231534
C           6.06284717588263    1.18202385004427   -1.99522718385620
C           7.27212339051747    0.64715116552030   -1.49896242189219
C           7.62131586932335    0.32302484818253   -0.19587379419512
C           8.92445634379647   -0.14886497822823   -0.10501429538552
C           9.58950732139152   -0.17495894481489   -1.34677880471305
S           8.60982486397694    0.39039372580453   -2.61504177475297
C          10.90330109187817   -0.67662933006235   -1.14755973055529
C          11.05190014764242   -0.98440093072459    0.21805641316342
C           9.81767439881339   -0.66695834734903    0.91674630654915
C           9.53798634559348   -0.83321118020285    2.24140105796966
C          10.48495056589113   -1.35490757961677    3.14708406003186
N          11.26304553560490   -1.77471809575576    3.87730988079101
C           8.28145758523200   -0.48201938377247    2.77830836673624
N           7.25924020555772   -0.18321212291517    3.20354402212883
C          12.31463196117533   -1.48406355406716    0.51136655441093
C          13.12511702786015   -1.55977696538723   -0.61380892816536
S          12.30829898654162   -0.99498578775053   -2.06116033978720
C          14.48316859325471   -1.98798419237241   -0.57870226923688
C          15.38050906929032   -2.30681638230114   -1.58762115838230
C          15.00255100091192   -2.37411691252923   -3.00766019289922
O          14.18154155485018   -1.65434438620886   -3.51933433906285
O          15.59985847964440   -3.33150013697208   -3.73608294138697
C          16.67210889203223   -2.66906456437311   -1.08241977901205
C          16.70741095065319   -2.66548970823804    0.28507056518592
S          15.21818482438184   -2.21271600634487    0.98869270697469
C          17.86969280727484   -2.87982293874714   -1.87154484859548
C          18.90554877405333   -3.73832917038921   -1.58409730003601
C          19.96917786462300   -3.59297673064656   -2.48336101828915
C          19.73072411854426   -2.60096129127528   -3.44498669918099
S          18.20893879313154   -1.85286314006683   -3.25736505121300
C          20.86523357790375   -2.50727147491296   -4.29321073444256
C          21.82309172655125   -3.44934224121541   -3.86338228349894
C          21.29106468903438   -4.15780265734504   -2.70833632802065
C          21.90136456050587   -5.12600234372795   -1.96802400890949
C          23.20925532363123   -5.59360465242969   -2.22424264038572
N          24.27272103611258   -5.98664670874986   -2.39044700946636
C          21.25894790386346   -5.72216377240037   -0.86136293472229
N          20.73069270391303   -6.20120307364119    0.03661084851449
C          22.98449704646156   -3.43319126011188   -4.62638205360585
C          22.93169498574006   -2.48219428496197   -5.63696458670417
S          21.39849669787451   -1.59789507493976   -5.62219799415602
C          23.86743894413501   -2.05422630299839   -6.60265886255758
C          25.08426936606460   -2.55911141195274   -6.96380799982174
C          25.96953649961593   -1.91867351829673   -7.92610861912749
C          25.87640044973059   -0.63621852153908   -8.40217903965040
C          26.78445804154173   -0.06862273624521   -9.32154137141561
N          27.47829423626193    0.45321417341552  -10.07253461941414
C          24.90689598068057    0.31824111695657   -8.02844111765760
N          24.16958982125372    1.15884679034407   -7.76406650688191
C          27.04353400825995   -2.85276523748307   -8.23735316119041
C          26.88009753641574   -4.01318992213264   -7.42976190501143
C          27.75035131342483   -5.06356425164148   -7.48670064154176
C          28.84644495464109   -5.00059034360708   -8.37555054292226
C          29.78076873386776   -6.04999892879124   -8.47621949412738
C          30.83347984973959   -5.96757296612266   -9.34696065020210
C          30.99793720741342   -4.83233570402189  -10.15472400407915
C          30.10812962964239   -3.79540402966173  -10.08124560302784
C          29.01308112693624   -3.84646592171924   -9.19478048132008
C          28.09519224149044   -2.77456490980004   -9.11223418317850
C          25.68039296733460   -3.86866875775182   -6.59016791414933
O          25.26400489550434   -4.68403989016019   -5.79483866935146
H          -0.35559233767079    4.76808177319323   -0.31265769835139
H          -1.77667057279048    4.69985712899536    1.69829880395125
H          -1.29853047439147    3.09153117127267    3.50152450493912
H           0.60186483431016    1.53704098839814    3.30842368463300
H           2.50382169806242    0.67411594758744    2.07508497523349
H           1.58846028367326    3.93027665289250   -1.59227953502947
H           6.12554348823056    1.68482646727746   -2.95605121294362
H           6.96640489378464    0.47246509478005    0.64281923345989
H          12.64408253314104   -1.78601583217179    1.48989405327409
H          16.19620155932931   -3.88705443170737   -3.21412411492980
H          17.55204806282283   -2.87494529884359    0.91042523288933
H          18.87503273313174   -4.44280695846416   -0.77318410225620
H          23.83570795004417   -4.07391129599273   -4.48098810674095
H          23.53992658349214   -1.17096508234809   -7.13923645890711
H          27.60390839794835   -5.92988847057718   -6.85887212218978
H          29.64897224119974   -6.92134381129098   -7.85168285042571
H          31.54511331255052   -6.77643869373386   -9.41821486135659
H          31.83419648194849   -4.78318021814305  -10.83585398357435
H          30.23137749038128   -2.91856404202574  -10.69983746388089
H          28.24719760534577   -1.91839939541773   -9.74982974582986
