100
 SCF done       -200.749291478984          0.000483345828
C          -0.38571219580019    2.90095345959449   -2.02976499230451
C          -0.74750116225561    3.97256836329305   -2.80034035851599
C           0.21145041930975    4.91732417808544   -3.19503186985055
C           1.51815060314232    4.77856998272715   -2.81325694098175
C           1.92477933560258    3.68913946150172   -2.01668481040906
C           3.27134665070090    3.54869647199564   -1.60855163240902
C           3.62880946897424    2.48043663724903   -0.83163741431588
C           2.65549972565745    1.50758477065146   -0.45892420624522
C           1.34737654693892    1.62309861615925   -0.83196244522091
C           0.95080488653377    2.72758110971882   -1.61943357608120
C           3.30867912972607    0.44108773239017    0.31772591985717
O           2.80243364400302   -0.52193087567100    0.84642394048582
C           4.76775301787036    0.75766564501609    0.26857381765251
C           4.91175219276249    2.10287107056517   -0.24705457213043
C           5.94771557625641    2.96910808473574   -0.00904231650927
C           7.08260236981320    2.64432705326417    0.75771591523979
N           8.01315149586902    2.42501270121414    1.39410236650974
C           5.95179575699079    4.31793633939416   -0.42255858381984
N           6.00180981985166    5.42258007108155   -0.72880995035932
C           5.65434330809907   -0.22103370196550    0.59957476052118
C           7.02706795383235   -0.31888215918109    0.28387668728520
C           7.74979247340421    0.35295541790833   -0.69183316323143
C           9.08051821052894   -0.04051265124790   -0.72497711228309
C           9.38454159577635   -1.03294066999353    0.22878866459024
S           8.02601801184572   -1.48270255988327    1.14832477664558
C          10.76031083053653   -1.35348402623387    0.11414973221391
C          11.32516640836982   -0.56169046970454   -0.90244446280569
C          10.29119754117687    0.29865741771973   -1.45360470810694
C          10.42141163187665    1.24671691203474   -2.42515116337547
C          11.64981229269130    1.50874623047448   -3.06801396922440
N          12.64344261474638    1.72066098003455   -3.59896085540001
C           9.31930016234052    2.02152352012862   -2.84545828632407
N           8.41251657847823    2.63855972586816   -3.17990123128860
C          12.68030354464112   -0.81823262201731   -1.10152419861989
C          13.15241962730546   -1.80021622167414   -0.25041735451540
S          11.89924514410539   -2.40814945535661    0.82231845786507
C          14.47539695274324   -2.33709962103188   -0.20092596128998
C          14.84918383250437   -3.34568546047808    0.68680499836713
N          16.03824775193095   -3.91736629676924    0.75053774765540
C          17.02046150031863   -3.55186425027158   -0.06034375062580
C          16.80294907045180   -2.50925528034650   -1.00212101636665
C          15.50591253270392   -1.89584667243187   -1.07316145983329
N          15.46232738452563   -0.94839095014314   -2.00918891849447
S          16.89909619391553   -0.84002431253007   -2.71713931024435
N          17.65204710698998   -1.98669518488185   -1.88395190240646
C          18.25368741027438   -4.25867027637381    0.04302365393124
C          19.40395991432871   -4.11002183347895   -0.71066169473772
C          20.38027599594746   -5.02907136307129   -0.33536847907720
C          19.96107109756592   -5.87080280728987    0.71596886597408
S          18.37151292473400   -5.53181854471927    1.23757060690362
C          21.00839591357229   -6.77974936833030    1.00438361529375
C          22.08492868603723   -6.52222856485908    0.12799084835847
C          21.73184092310569   -5.39833256106482   -0.72495055333506
C          22.50642119683464   -4.80582982300812   -1.67758806958240
C          23.83030337538822   -5.21530640612763   -1.94931529549110
N          24.91398409417431   -5.51400735735810   -2.17323704880480
C          22.04491237862754   -3.71673939218287   -2.44831314442660
N          21.67802861348943   -2.83303805084476   -3.08008089069829
C          23.14641144943673   -7.40274687737057    0.29250909676619
C          22.90078916385732   -8.33434807852334    1.29192969203264
S          21.32940324112146   -8.07454786821920    2.05768945620722
C          23.70045648843391   -9.38064720805940    1.80052925423312
C          24.73139775232692  -10.03308365120319    1.18591635432964
C          25.57632548198680  -11.02878483938749    1.82059981759695
C          25.74153784237543  -11.20905375975950    3.16961734277080
C          26.59944919872579  -12.17460987023885    3.73606534538067
N          27.27369560827124  -12.94474836794251    4.25582065391310
C          25.11566628530013  -10.43652527004025    4.17024245222086
N          24.65717756561311   -9.83576762530876    5.03513074923283
C          26.29407628322557  -11.74113232833341    0.77200951564272
C          25.96688940155438  -11.14780656828227   -0.48019036591432
C          26.49296514954561  -11.60265923317860   -1.65478622221708
C          27.38813820835818  -12.69536732707795   -1.62980150243309
C          27.96355648241609  -13.20825757499387   -2.80883235898218
C          28.82296752120696  -14.27238219949487   -2.76190419428417
C          29.14569944489644  -14.86860629975037   -1.53375203909462
C          28.60478746661277  -14.39364347585760   -0.36992754594211
C          27.71586735342087  -13.29959721374482   -0.38149464058659
C          27.15522586056347  -12.80537351518287    0.81880139374733
C          25.01753859963274  -10.04143469976422   -0.27401457920230
O          24.52514825779435   -9.34642484469342   -1.13658500696218
H          -1.11969945918582    2.16989773235374   -1.72366569135899
H          -1.77419443059047    4.09761473146402   -3.11029567228159
H          -0.09071811336289    5.75680525708405   -3.80304748934283
H           2.25967010214614    5.50488549200366   -3.11163629697401
H           3.99154014956132    4.28363677043666   -1.93256717446115
H           0.62308604515684    0.88050858200445   -0.53177436491580
H           5.22005357136254   -1.07191913010281    1.11615754503573
H           7.30432094561800    1.05743551281668   -1.37001117414095
H          13.31368181110981   -0.33543191498703   -1.82321202020761
H          14.12638453243073   -3.72965250385715    1.39553401354050
H          19.49102175751949   -3.37053054902653   -1.48575107524719
H          24.05837454766969   -7.37794699602987   -0.27314491079391
H          23.41534845521558   -9.71843926821488    2.79041434664804
H          26.23019476253506  -11.13257939634652   -2.59078627731976
H          27.71125178142029  -12.74470021295009   -3.75129146089243
H          29.25839798570922  -14.66049144542622   -3.67053583428374
H          29.82598411914379  -15.70680348783200   -1.51420735810817
H          28.85167587700721  -14.84847220059690    0.57816242168775
H          27.41653539065211  -13.28866043893850    1.74687809902617
