104
 SCF done       -202.520590141565          0.000351093738
C           6.56632086606531    6.25028453169156   -8.73853666700372
C           7.35028836796175    7.04421737034169   -9.53107460124287
C           8.68273762397912    7.30347345288166   -9.17701776280618
C           9.21281085828778    6.76555656016789   -8.03601657769056
C           8.43325579634385    5.94492552054690   -7.19593575963215
C           8.97294394988816    5.39501992363077   -6.01054194099600
C           8.18563610082443    4.60367694280705   -5.21920829891049
C           6.83815766767455    4.32596612742877   -5.59480595470464
C           6.28964036667341    4.85133742619502   -6.72901457590023
C           7.08039185389902    5.67989582027754   -7.55736749892866
C           6.22967951430395    3.42301713483003   -4.60038284441908
O           5.09251784188016    3.01531696627038   -4.55443011588374
C           7.34673997946631    3.04960240933383   -3.68403089980987
C           8.45404558119221    3.94503138790523   -3.94670413453451
C           9.41695502872781    4.32160061825623   -3.04646810005122
C           9.45826507726837    3.85072903621902   -1.71845160957446
N           9.49778388688296    3.51169420623771   -0.62215542881697
C          10.41307256786978    5.27961038481059   -3.32035404719670
N          11.25572787178309    6.03727054581812   -3.50346505519753
C           7.22462391846819    1.95686106565722   -2.88446139786721
C           8.23967265676280    1.17745464021495   -2.28005473617247
C           8.07210412799545    0.29409535463955   -1.22510111308032
C           9.25556178442959   -0.35345622296647   -0.88436787328420
C          10.33204638217378    0.00859747568392   -1.71821119909057
S           9.89117618660948    1.15105186701676   -2.89778718808899
C          11.48620069795213   -0.69586463868279   -1.30128963708373
C          11.14766176016263   -1.49821008633264   -0.19804632472626
C           9.73473614701117   -1.31322224561823    0.09784193765978
C           9.01655777085218   -1.91475322761448    1.08837503899337
C           9.59787953224181   -2.83223652942418    1.98996704767491
N          10.05814488460709   -3.58145360262153    2.72559012535961
C           7.63917137630728   -1.66821952377466    1.27337664042847
N           6.51824858540947   -1.47897818947657    1.42128751232128
C          12.22887405433732   -2.22271485147119    0.29916278063635
C          13.39243516539397   -1.98570352884508   -0.40924994400740
S          13.13035769919339   -0.83781218125929   -1.72353686784203
C          14.70501273071509   -2.52478802551150   -0.20003359689820
C          15.75467865814252   -2.16634840676327   -1.03622975622682
C          17.04053953610725   -2.64628655246379   -0.86193444945737
C          17.37742529764400   -3.52095118832275    0.16314940394760
C          16.32633887743133   -3.92781675785446    1.04453796599888
N          16.58669913301563   -4.78308938740422    2.04912088450964
C          15.61731590693205   -5.14303674329386    2.84605187251705
C          14.31161810661037   -4.65480857416617    2.66959094910367
N          14.02486621785341   -3.82660168899236    1.70198073476369
C          15.00082335567814   -3.43426565825534    0.86406591603621
C          18.72855561495154   -3.97849253898270    0.31404315416285
C          19.26376629788707   -4.80973294831244    1.28024265420134
C          20.62889303230053   -5.02352727066051    1.10081578016632
C          21.14759422998379   -4.34703109189827   -0.01718474487189
S          19.95378873997690   -3.45162159771668   -0.84133449934251
C          22.53174203297414   -4.62312018498815   -0.11279582845490
C          22.89280997756666   -5.48354754565936    0.94909185135708
C          21.70883278661440   -5.74942488038042    1.75226943226872
C          21.62095685796087   -6.49752252340490    2.88825493825711
C          22.73311321016013   -7.13156509719367    3.48494662672003
N          23.61611191419550   -7.64178754731455    4.00768983138815
C          20.39883081383740   -6.67731472664054    3.57254889732721
N          19.41223877181533   -6.83257032909198    4.13570263302056
C          24.23571742943781   -5.83465208696137    0.93380129518920
C          24.91848862075166   -5.25077301791040   -0.12646965843725
S          23.85071565572790   -4.23401736754132   -1.10845696980952
C          26.26988487830571   -5.27494330978697   -0.52507248050059
C          27.31530225668396   -6.05121356430722   -0.10700041085624
C          28.68196527129566   -5.88455426307793   -0.57594805602246
C          29.19362022096531   -4.80741749096455   -1.25369736327671
C          30.53904766937709   -4.70191007513482   -1.66536264480131
N          31.61530836435876   -4.55272128626005   -2.03608816643852
C          28.48547903250409   -3.64020485385340   -1.60858067789668
N          27.98961915401123   -2.65039335949743   -1.91602138881633
C          29.45389178255433   -7.03606340375498   -0.12605734380390
C          28.61124172900070   -7.85801758475312    0.67345817491503
C          29.05993265540972   -9.01038175698011    1.25122011693656
C          30.40117426096114   -9.40429066674304    1.04721685474783
C          30.92321133515513  -10.58128798612650    1.61845409171922
C          32.22447258689832  -10.94592545415825    1.40194024187813
C          33.06032722678435  -10.14918815684820    0.60529748523170
C          32.58437359986378   -8.99917309483991    0.03664284219887
C          31.24966637525425   -8.59314863868039    0.23943740109104
C          30.75580628973839   -7.40333413959246   -0.34315435224446
C          27.26367907799948   -7.26948793265036    0.74128090307363
O          26.31408083304821   -7.73185604211396    1.33771196730163
H           5.53975489553312    6.04744789583866   -9.00647167567437
H           6.94813565938388    7.47657941169294  -10.43499625697902
H           9.28735376152509    7.93269198797574   -9.81282278785718
H          10.23696309188422    6.96514841661668   -7.75679955980189
H          10.00216143596970    5.60301640705022   -5.76194053563350
H           5.26428904039328    4.63856538437208   -6.99259827674550
H           6.21235026418570    1.58514980466640   -2.75473041177262
H           7.13033246047302    0.16967748684328   -0.72165669446813
H          12.20476389812846   -2.89494652637145    1.13643065339927
H          15.56590638048495   -1.48418490294950   -1.85260247031067
H          17.80889341404699   -2.32125824547803   -1.54860385603362
H          15.87538127984704   -5.83102446980589    3.63901871931839
H          13.49488745876654   -4.94061811527771    3.31768104242433
H          18.65948828519110   -5.22491322581046    2.06495563353712
H          24.71582857662830   -6.48892708852313    1.63882253540095
H          26.49080718377616   -4.55857487373043   -1.30831653341148
H          28.39868661042293   -9.61213299187150    1.85684755120747
H          30.27457840611108  -11.19044353375723    2.23079211245191
H          32.61672189681364  -11.85006409677957    1.84299148758240
H          34.08441329497298  -10.45116525675320    0.44454445382955
H          33.22460937362073   -8.38157803633847   -0.57609377405273
H          31.42277139453844   -6.81502057396696   -0.95288679641065
