94
 SCF done       -182.780104516358          0.000523201333
C           1.91089261380653    2.89829210022668    4.65595613490341
C           1.86551218503516    2.85314844331886    6.02308936313266
C           2.68971896248720    1.96554561786889    6.73077763895636
C           3.54720835651067    1.13509331156916    6.06203139413871
C           3.61797424309756    1.15381489877885    4.65438131674316
C           4.49437942691265    0.29043070480117    3.95807968364621
C           4.53588532876374    0.33703804392887    2.59119918793077
C           3.71385850596294    1.25820375374404    1.87718871380300
C           2.85180156591641    2.09577142125447    2.52449139060119
C           2.78301157204691    2.05820074546676    3.93589496721734
C           3.98343825359572    1.13613895890884    0.43245791538060
O           3.44205732131036    1.71019190645693   -0.48311479048609
C           5.13726276500691    0.19400956253161    0.33448574341512
C           5.30069194918814   -0.44202595119051    1.62592456785539
C           5.82468389789097   -1.68863750745881    1.85039123764123
C           6.31753493238172   -2.51765655272383    0.82228743126382
N           6.69605436254417   -3.22714260972205    0.00269091657872
C           5.85342052273855   -2.30917795318921    3.11523591012762
N           5.91694741710740   -2.84801522686526    4.12673464258992
C           5.87817140121854    0.14303122766723   -0.80364440104487
C           7.20633494480071   -0.32208261757539   -0.96677198893006
C           7.80555924187573   -0.71318767337501   -2.15259618575235
C           9.13303482172708   -1.09407970857928   -1.97317528189058
C           9.56366782039688   -0.94663300592201   -0.63972286933522
S           8.33881249260358   -0.36441384394607    0.38493451053685
C          10.91248831787827   -1.35825857477200   -0.54783728948472
C          11.34063425825510   -1.78307785699496   -1.81996661539685
C          10.23627943709769   -1.62079249665118   -2.75823883182021
C          10.24464367219631   -1.90294006459799   -4.09214459288089
C          11.38819664626962   -2.41869300181665   -4.73802568723561
N          12.32057724364850   -2.83568138713552   -5.25907967192656
C           9.11864165277131   -1.68648124869736   -4.91509351727308
N           8.21200670997536   -1.50443621777011   -5.59220576095352
C          12.65732402046214   -2.23346150088989   -1.82635038073536
C          13.24166149748632   -2.15303518557741   -0.56932667615034
S          12.13361877600725   -1.50502099610797    0.63114878413593
C          14.54193499732677   -2.51320399001934   -0.13918829991920
C          15.49802441208672   -3.09318928893175   -0.90839745492718
C          16.78350040707944   -3.44709128022836   -0.42600004723165
C          17.33038153406354   -3.22827960724451    0.83127107659772
C          18.61984649548434   -3.73504389579621    0.93860000105561
C          19.07169022129397   -4.35139979078895   -0.24471743686053
S          17.90069045498802   -4.29147862591604   -1.48707130220152
C          20.37932237468556   -4.84411110637368   -0.02462598112288
C          20.75715666238731   -4.53662836131541    1.30349769900764
C          19.67142087074962   -3.81493127230127    1.94256636207439
C          19.63817187949858   -3.29806864265983    3.20360980003518
C          20.72756027937404   -3.36853237372137    4.09965065098385
N          21.59785577683224   -3.38555221350092    4.84490414652180
C          18.50175074534380   -2.62218251981346    3.69721649242017
N          17.57582009704213   -2.07583938811600    4.09620892439892
C          22.01705682256727   -5.01051998838991    1.63888155133729
C          22.62328827066540   -5.68247424606407    0.58521550706117
S          21.59235830026063   -5.69463993558813   -0.85678542089458
C          23.88504090486911   -6.29556021943884    0.44894198946859
C          24.83237679617584   -6.60256521335103    1.38721004688046
C          26.14117929263992   -7.15389332950746    1.07069948921389
C          26.71378069373248   -7.26182583770418   -0.17117504044392
C          27.99645649350315   -7.80216822345272   -0.40383246297097
N          29.02611221831780   -8.23510518834699   -0.66935493935939
C          26.14454927102364   -6.83972683621217   -1.39073926223849
N          25.76596602114815   -6.50992845767228   -2.42425506260966
C          26.78938542367874   -7.52143154325899    2.32420858597042
C          25.92517176178080   -7.16949124292281    3.39800914513377
C          26.26382566255236   -7.38096386119557    4.70322550361137
C          27.51375448823331   -7.96677383684163    5.00180454585830
C          27.92315046934452   -8.20421116417582    6.32848699420562
C          29.13897669353995   -8.77395764342723    6.59325904062873
C          29.99768337337539   -9.13069167695365    5.54277643909769
C          29.62957344175988   -8.91362720025620    4.24278890019425
C          28.38497414133133   -8.32797094244023    3.93366076666024
C          28.00355755218990   -8.09768917521372    2.59163662282511
C          24.68826852885679   -6.57787561720155    2.86594023384493
O          23.74101385079529   -6.20308417304631    3.52493769244532
H           1.27860286417150    3.58017309499999    4.10646666970654
H           1.19464534430478    3.50134858647278    6.56666010846869
H           2.64126351699894    1.94235133086040    7.80910481616721
H           4.18121956727429    0.44700449727159    6.60163588259994
H           5.12322897684027   -0.37976687459293    4.52350519749673
H           2.22871313136062    2.77991030340221    1.96791601591260
H           5.42087260626529    0.58371702234207   -1.68437602850723
H           7.27143842170873   -0.74763329239737   -3.08498793328938
H          13.17445582397746   -2.60154525182324   -2.69289168996055
H          14.75471197383083   -2.30885283945103    0.90070312756809
H          15.29286211546965   -3.32284700713144   -1.94410841242060
H          16.80946072163347   -2.72237544535237    1.62218065117865
H          22.48451419889753   -4.89814744768599    2.59993464987323
H          24.11466479999166   -6.57041843747919   -0.57400132632102
H          25.58654614517460   -7.10023629289746    5.49608161611084
H          27.25716352159576   -7.92687743245218    7.13242083671851
H          29.44558873877964   -8.95270586434792    7.61300782653310
H          30.95372414089218   -9.57853376332052    5.76898643534197
H          30.28820026100041   -9.18576210398143    3.43108403735612
H          28.68552831229599   -8.38764438830348    1.80848511362486
