112
 SCF done       -246.247746428603          0.000927068690
C          -1.11046248099949    0.92046773015686   -1.26167098498853
C          -1.63855369857337    1.30639469367695   -2.46380468269122
C          -0.80255037176354    1.78302258540705   -3.48465491123766
C           0.54929149055670    1.86768711137427   -3.28995742955730
C           1.12661274422145    1.48117057788442   -2.06350709615263
C           2.52168775124651    1.57659662772434   -1.85380987843653
C           3.04674727070539    1.19503675550053   -0.64886316559062
C           2.19461177453496    0.68658155318225    0.37514407926931
C           0.84358215680267    0.59149443003261    0.20226739886668
C           0.27688841736552    0.99430821255303   -1.02784477034474
C           3.00977596833268    0.29825265546056    1.53677748278249
O           2.64156504187668   -0.11848558988704    2.61019938811114
C           4.42864943792162    0.46421819283462    1.09265897992974
C           4.41793670697125    1.20980492673501   -0.14964477132388
C           5.42249423412390    2.00185798525390   -0.64158705539302
C           6.67234512582245    2.16548419524144   -0.01438944828260
N           7.69292705919695    2.34095038848177    0.48187007824652
C           5.28659499984232    2.81881992857597   -1.78423092420821
N           5.22564786186500    3.50473963895545   -2.70180268350566
C           5.40495343679802   -0.14661947470155    1.81542487438445
C           6.72894086273394   -0.46775864235378    1.43583663545984
C           7.27461527787713   -0.55746918210946    0.16353416643502
C           8.60927887306442   -0.94101345260715    0.19344003849608
C           9.09051350444438   -1.16028743613489    1.50040431046911
S           7.89331063885108   -0.90184674370877    2.68038172258725
C          10.45376612853289   -1.54352361725626    1.42741838650915
C          10.83020653266842   -1.55360591770252    0.06523955029274
C           9.68827954781296   -1.16957102551709   -0.75020685962395
C           9.63367776801462   -1.03697167002466   -2.10619379904219
C          10.74941892826335   -1.29984673156812   -2.92885000868576
N          11.65329215783479   -1.53240441585238   -3.59426919206211
C           8.44645691404580   -0.64104597391623   -2.75796980059209
N           7.47057185116565   -0.32587666171989   -3.27094649693794
C          12.14854418654797   -1.93069660758522   -0.10977637900680
C          12.78375447333270   -2.22779329385698    1.09894963730268
S          11.71031334001007   -2.00912816039468    2.47884276366179
C          14.11994997559791   -2.68231310647609    1.16933502026005
C          14.91005700614328   -3.13601229025632    2.22764362618773
C          14.48021183909260   -3.13913093422181    3.60387049291888
O          13.38745425707621   -2.73990891359954    3.98735994470464
C          15.48142593437125   -3.65211139493852    4.55400316678075
C          16.75637477414076   -4.11985228376475    4.14196309460966
C          17.51433628340096   -4.54485843718193    5.20840318217634
S          16.69998098245520   -4.38258317162055    6.71153063050209
C          15.31988066213899   -3.73984059074352    5.91745819012078
C          14.12118607307982   -3.34992420246514    6.72668320601581
F          13.82885508743532   -2.05097193914842    6.62623414280637
F          13.02719197489803   -4.04162588764886    6.39570636039505
F          14.33684592503767   -3.58857779769634    8.03317031307328
C          18.90495787930942   -5.10075226224798    5.18232750876033
F          18.99093310330984   -6.24825314313060    4.50465691794548
F          19.79167258997171   -4.24975056325444    4.65955189525393
F          19.32899613462562   -5.36809743113431    6.43109606151842
C          17.17301452328328   -4.14355447466386    2.72905582245249
O          18.25235205564065   -4.61271957454675    2.39241441185327
C          16.20354396455210   -3.59155369466610    1.81353613243767
C          16.42559716119609   -3.44820182708661    0.44344232798322
S          15.01457740887183   -2.76731353438863   -0.32778496801083
C          17.53364536963070   -3.74101362702760   -0.38440497833267
C          17.59688921528063   -3.35800894081577   -1.72602098478854
C          18.75154522495622   -3.79974127906210   -2.34562230285123
C          19.57306748678412   -4.55119844167093   -1.47511196746316
S          18.95220695953515   -4.66164058694235    0.10752653970978
C          20.70966424884096   -4.98789152068835   -2.20194157572148
C          20.60330384509546   -4.50437528377466   -3.52797377819432
C          19.37654838779986   -3.73535557217595   -3.65715965701988
C          18.90808706623887   -3.08964987177699   -4.76269156721281
C          19.59699477802401   -3.10508018354362   -5.99414900382448
N          20.14997774172763   -3.12454622333920   -6.99802667033423
C          17.70037125670754   -2.35970973872729   -4.73970826843999
N          16.72327953336774   -1.76081044002972   -4.71331036146657
C          21.66987027506777   -4.89708114812410   -4.31505856794110
C          22.57935557305186   -5.70061181398745   -3.61837172584519
S          22.09227197766868   -5.94780522925420   -1.94396838349192
C          23.73226044160178   -6.21572741878851   -4.24013427013225
C          24.67175834289243   -7.09143911112383   -3.76892788900175
C          25.82317592765230   -7.58868677071061   -4.50421142842442
C          26.31197064081243   -7.11377996408528   -5.69245137924363
C          27.44895983963565   -7.63910547260070   -6.34290355136889
N          28.36389494694135   -8.02067366369783   -6.92147425249157
C          25.78448199242392   -6.02506964420053   -6.41877217218637
N          25.42182120350346   -5.14239334957547   -7.05736127282642
C          26.41272629204558   -8.66640679646407   -3.71687494896548
C          25.69790808043777   -8.77540517782392   -2.48887891902493
C          26.02553493550661   -9.69972059567106   -1.53890977927264
C          27.10174110559873  -10.58204591388236   -1.78160045685520
C          27.48445592935989  -11.55955602564094   -0.84235806544885
C          28.52567756090806  -12.40909919492055   -1.10247947725404
C          29.22953312352817  -12.31727049948690   -2.31234922957351
C          28.88380589091764  -11.37747412321043   -3.24535431727645
C          27.81714442790982  -10.48664463668882   -3.01034260446633
C          27.45727715545959   -9.51446629773364   -3.97242359019069
C          24.62106664880945   -7.77864566807118   -2.46926764987790
O          23.83147835224302   -7.57597641417863   -1.56245590603324
H          -1.74912423279594    0.55205444680209   -0.47224993433314
H          -2.70291636870458    1.24589078636582   -2.63472395748154
H          -1.23552872087332    2.08352543597804   -4.42689616042256
H           1.19670903517903    2.23683347343076   -4.07157981600224
H           3.14426184561078    1.93622796818191   -2.65810746799381
H           0.21430696824619    0.21147930106753    0.99327865938217
H           5.09296098186333   -0.49490729311712    2.79576535235118
H           6.70551307476507   -0.39497970856952   -0.73336943675507
H          12.64557018874048   -2.00660931189524   -1.06115301119607
H          16.82442326011674   -2.77916948579211   -2.20136727600384
H          21.80798362624650   -4.63754653539586   -5.34985973248133
H          23.85169416241669   -5.86685966555085   -5.25921623579463
H          25.46899982116327   -9.75830211076391   -0.61534446253721
H          26.93837735207343  -11.62565205328163    0.08722495143162
H          28.81196365478803  -13.15640405678674   -0.37774632348356
H          30.04805157484808  -12.99522842063192   -2.50201801529739
H          29.42369052486096  -11.30238870560055   -4.17777850308645
H          28.01695996707411   -9.47171356634539   -4.89308086286842
