98
 SCF done       -192.932738977234          0.000528742891
C          -0.61477609148441    1.95119496892347   -3.18304209691500
C          -1.49238155444667    2.40667361034752   -2.23684670473453
C          -1.21264282838447    2.23942459309251   -0.87232754686216
C          -0.06035495534888    1.61903754086595   -0.47237071901482
C           0.86421003160061    1.13500957724793   -1.41991988636834
C           2.04965358354156    0.48092560117637   -1.01183491868646
C           2.92135716931754    0.01722490472473   -1.95978024684924
C           2.64381765023432    0.21563327011746   -3.34418000564376
C           1.50399043844874    0.83735996536790   -3.76617171395123
C           0.58064714150210    1.30821381470540   -2.80588098088911
C           3.75367973744041   -0.32570402365645   -4.14365093502397
O           3.85447711403724   -0.38699064478248   -5.34734915786078
C           4.78787671982070   -0.74534569382959   -3.14915732760771
C           4.17652912319209   -0.71819866640557   -1.83648126916378
C           4.54517642062980   -1.45435139049743   -0.74002975800003
C           5.63092857131376   -2.34958629972325   -0.71951781522887
N           6.49245945260315   -3.10735297558684   -0.66789011131081
C           3.81859036381494   -1.47808652755734    0.46942918147814
N           3.26502295274067   -1.53950845668639    1.47257607652503
C           6.04877400732834   -0.98499853686638   -3.59977560488616
C           7.26406130071767   -1.05347286666526   -2.88196028512416
C           7.57407944223546   -0.56547245726002   -1.62125088976297
C           8.89280387942565   -0.82549333701045   -1.26774057147971
C           9.60335701500643   -1.51206489746770   -2.27037817719443
S           8.65473310815702   -1.81232292544368   -3.64849979669426
C          10.91639273584640   -1.76274552505518   -1.79377368132357
C          11.03273232335661   -1.24214998530476   -0.49477370160073
C           9.76343356526217   -0.64080300975552   -0.11793825862332
C           9.43506827767790   -0.05836409060891    1.07059679877748
C          10.35966785240969    0.05500752718640    2.12992838012640
N          11.11924127691863    0.15088907998394    2.98335687065681
C           8.14516154093648    0.46472703351447    1.30245207982887
N           7.09518507675790    0.89214443326361    1.47425793234061
C          12.29480293771760   -1.45824171430615    0.06376966441126
C          13.13615477033408   -2.13287776496085   -0.79732346999142
S          12.35211106284624   -2.50812323582849   -2.32750296621748
C          14.49302336610523   -2.54030940473432   -0.57594015198709
C          15.16646572265974   -2.36526119637714    0.64628358443885
N          16.40171898162462   -2.76186780891599    0.83196833592136
C          17.02847501907514   -3.35358202124492   -0.18900312692817
N          16.49127200009532   -3.56069216164476   -1.39581000433674
C          15.25788764358418   -3.16208550954989   -1.57807360771526
C          18.37163558704397   -3.80464874818802    0.02542214491835
C          19.19032410045308   -4.44082829807298   -0.88667263316451
C          20.42979423967033   -4.74929796425895   -0.32896093865283
C          20.53552587943645   -4.33790917826936    1.01460165010416
S          19.11784876081566   -3.57556487147143    1.58441756636282
C          21.82093614234060   -4.69848110702367    1.49298249131466
C          22.52769296131065   -5.33840137373739    0.45046729671191
C          21.67355418301153   -5.39010357291679   -0.72665019690612
C          21.96489660744720   -5.92598238202567   -1.94532248292430
C          23.19835622663585   -6.54209600636059   -2.25286741039612
N          24.18139799395982   -7.05288695716976   -2.54611806577723
C          21.03839606173323   -5.90734002185947   -3.01113392339408
N          20.29665704630759   -5.89815182187624   -3.88518382575853
C          23.80675753721649   -5.73401090988912    0.81776007391663
C          24.09745740772032   -5.40779366036314    2.13658944292534
S          22.73409964667002   -4.58932258386197    2.91958660019772
C          25.23184876423180   -5.60049317317151    2.95301713889221
C          26.44849873877635   -6.17416047419802    2.70770418879574
C          27.50323310798135   -6.28835716435241    3.70770492314300
C          27.46931643028668   -5.85983684300371    5.01016810205646
C          28.53870173425530   -6.01131256251761    5.91957493321696
N          29.36088535344302   -6.09459716157036    6.71644367224858
C          26.39872846167398   -5.21217581078750    5.66213657672499
N          25.58864396057402   -4.67937796012853    6.27915781920386
C          28.64134862576370   -6.95521590811866    3.08524920845108
C          28.31076037739868   -7.24605853522160    1.73283128129381
C          29.18178035761751   -7.87280809382921    0.88899300417980
C          30.45524052272099   -8.24737806924852    1.37106572853110
C          31.39785954993013   -8.89735206354026    0.55051368392189
C          32.62579845460498   -9.25020135695777    1.04107014248643
C          32.96426141471031   -8.96837743413951    2.37317119419570
C          32.07118385911073   -8.33820750754710    3.19637004943936
C          30.79735972804071   -7.96069338933037    2.72431398494916
C          29.87242516790259   -7.30989193442016    3.57265669419300
C          26.94842124452286   -6.77458158042620    1.44351513449822
O          26.38026165566513   -6.86853368374048    0.37581097285593
H          -0.82442030799073    2.07743915722022   -4.23516370718817
H          -2.40627986747848    2.89848310689400   -2.53465062833356
H          -1.91588095116516    2.60429576316813   -0.13886449707745
H           0.15757295612039    1.48478442096281    0.57687100574529
H           2.24513241681867    0.37318645708580    0.04359928142889
H           1.30839915630187    0.96833551505638   -4.82007615633909
H           6.12954290282100   -1.08106643903002   -4.67901765279392
H           6.87639775311299   -0.01344681719490   -1.01829403045062
H          12.58491865070840   -1.13782033035301    1.04744265472061
H          14.69085192938599   -1.89701045436703    1.49734634246472
H          14.84415323831335   -3.33878737750028   -2.56415173539854
H          18.87036390591492   -4.65303036103614   -1.88999574326651
H          24.51455880863756   -6.23495094787463    0.18081232482085
H          25.08589453685650   -5.21592998177239    3.95553101157398
H          28.89947769341948   -8.07919213811649   -0.13269714679921
H          31.13097263103587   -9.11134546956311   -0.47402587727205
H          33.34292730838919   -9.74820807529991    0.40579720682384
H          33.93729702570157   -9.25348738869161    2.74422860990644
H          32.32750143712659   -8.11934870982743    4.22260582675206
H          30.16652693765928   -7.10956255966020    4.59024327200608
