104
 SCF done       -208.375115436760          0.000950074958
C          -0.48464221146969    3.35596501341517   -2.53861804519845
C          -0.79815202963909    4.31579314292728   -3.46243868808092
C           0.21757443127077    5.03701512597256   -4.10766818508699
C           1.53229878697288    4.78958437835372   -3.82013964720312
C           1.89082974844138    3.81074931367279   -2.87130228779085
C           3.24724746000510    3.56262576152348   -2.55926727949802
C           3.55816851594617    2.61093924078499   -1.62596624576143
C           2.52242479791036    1.86020517787913   -0.99599858096701
C           1.20452259293243    2.08391438486570   -1.27380366386826
C           0.85851934406679    3.07586141060695   -2.21886936522080
C           3.12354652387259    0.87502526117740   -0.08277307324080
O           2.56717167045038    0.09876622755227    0.65901273479434
C           4.59796929921922    0.98515898260443   -0.30118757228322
C           4.84219229532350    2.18189470389430   -1.08157583680797
C           5.98682715607646    2.93581133593508   -1.09883719643750
C           7.14920356475576    2.63080510640045   -0.36533855147422
N           8.11375741120655    2.44320119452611    0.22930679634388
C           6.10406198212309    4.16854175365782   -1.77561855308165
N           6.25455930267258    5.17813447924166   -2.29970155478436
C           5.40122465050176   -0.01108257857336    0.15834521788145
C           6.73355861747017   -0.30846303190235   -0.21235311888371
C           7.41148596286902    0.04598328506486   -1.36881763950000
C           8.72243048844073   -0.41413071975710   -1.37120857974057
C           9.04970723033457   -1.13580168790819   -0.20716183973991
S           7.73519069457779   -1.27101645304614    0.86515515618039
C          10.41846149073551   -1.49406526204107   -0.27627066781974
C          10.95715945355114   -1.00068530494998   -1.48145155594950
C           9.90679663113811   -0.30423238849767   -2.20811028805089
C           9.99659945172733    0.36120456135968   -3.39394661035966
C          11.17912654100057    0.44397076228236   -4.16161773471836
N          12.11457559660072    0.52816948555011   -4.81801364882797
C           8.87824854898879    1.02816816485096   -3.94051227103468
N           7.96273765977476    1.56625733616790   -4.37340183935180
C          12.31769653327604   -1.26418069867966   -1.61783261630850
C          12.81630159987606   -1.95094349239382   -0.52198429421833
S          11.58155698645615   -2.28696889283456    0.68273708509864
C          14.16127924234963   -2.32595318523284   -0.28259898577868
C          15.28770388503760   -2.10429821988741   -1.04491008201427
C          15.64016957826599   -1.50837465088570   -2.34231033067628
O          14.94549975930558   -1.00601615217307   -3.19076418980519
N          17.02414573217585   -1.63480635830810   -2.43144969728283
C          17.78135629584200   -1.16617754024111   -3.56582160209775
C          17.60469533402308   -2.24049626518556   -1.32803839961188
O          18.78884959978477   -2.43673563710449   -1.17966580245805
C          16.48408430796253   -2.55318522601738   -0.43875667730805
C          16.32253946416405   -3.14226978571878    0.79263172536196
S          14.61689657152939   -3.14237986423075    1.20608388707062
C          17.30032433057831   -3.65348627695447    1.67859344619988
C          17.06527842582019   -4.28359910662696    2.89090322828816
C          18.25205183168379   -4.60887242861304    3.53884702063389
C          19.39213121768708   -4.21081865057793    2.81179396593523
S          19.01161334193847   -3.47045864042810    1.32311838967087
C          20.54844338747601   -4.53749872864138    3.56547963321749
C          20.13027028723826   -5.15185602401365    4.76931289028306
C          18.67719442026946   -5.22297572823145    4.78549934089472
C          17.87948042676821   -5.74033900770498    5.76321907520979
C          18.40410039523801   -6.30033834369264    6.94739293671492
N          18.82355465979621   -6.75026887957660    7.91472412092726
C          16.47285643994345   -5.74204604163870    5.65402826891404
N          15.32978642291228   -5.74190826370219    5.56373266467727
C          21.19655458319656   -5.48056478656831    5.58524570351411
C          22.42637132071775   -5.09541107064990    5.03878844456979
S          22.23437120780875   -4.33239604890930    3.46180346144723
C          23.63731474258059   -5.30646635515780    5.72156935392707
C          24.90359005916624   -4.88116989991655    5.42081138488962
C          26.09376862008770   -5.10489432101620    6.22403546569532
C          26.23261755201384   -5.98127548962597    7.26783969254099
C          27.42927011507517   -6.15624698477930    7.99474003093381
N          28.37029442317194   -6.34085988489227    8.62562747147664
C          25.22928269404117   -6.85277933430953    7.74158746594394
N          24.46871477748013   -7.59894130799060    8.17014333293507
C          27.15225433857813   -4.25852703465982    5.68258512913798
C          26.65767122741395   -3.60434202448362    4.51735575058488
C          27.42507018123188   -2.74205367876216    3.78865939674130
C          28.74885847823181   -2.48022362170711    4.20666956760227
C          29.58591123454504   -1.59294116117672    3.50236636943508
C          30.86199333027369   -1.34637482635971    3.93163124298693
C          31.35633326073851   -1.97777126147834    5.08247315967694
C          30.56908109076772   -2.84689622727152    5.78828020288412
C          29.25014602743626   -3.12319384479558    5.37529203986916
C          28.43266628214263   -4.01814112252442    6.10445135372735
C          25.26252245426869   -4.00388125214606    4.29780895507213
O          24.54399363485877   -3.65966819637998    3.37402900325301
H          -1.26257701518551    2.79726129749911   -2.03915457401715
H          -1.83029142188221    4.52414123907119   -3.70127677575582
H          -0.04718644196459    5.79093102967381   -4.83372336361665
H           2.31796675725382    5.34447317528817   -4.31127089518680
H           4.00971519992212    4.12415520447505   -3.07599873316075
H           0.43432869990436    1.51180479604375   -0.77823237538037
H           4.93225546750999   -0.69030106501790    0.86397129167384
H           6.94820296156167    0.58496539309976   -2.17496911888832
H          12.93395472471765   -0.97456921901960   -2.45158158603788
H          17.10155464649754   -0.61742168339922   -4.21517388115811
H          18.21105312742651   -2.00994443946210   -4.10785042171960
H          18.58838264459722   -0.51677228782704   -3.22656991497320
H          16.07459238934253   -4.47823238470467    3.26187851731075
H          21.12099905906910   -5.96462459174855    6.54295405961494
H          23.51004483387899   -5.85899501569391    6.64519676222544
H          27.02546766026533   -2.26184162800657    2.90778872699854
H          29.19915811914127   -1.10945474091156    2.61721752276802
H          31.49653604097638   -0.66324795972946    3.38719750587863
H          32.36498308589891   -1.77201390505470    5.40789138017988
H          30.94600563604219   -3.33588792486633    6.67449732255909
H          28.84154807403706   -4.48458161559734    6.98650978830274
