107
 SCF done       -203.563131724284          0.000586525282
C           9.35460835058061   22.13592103983850    8.96681784295062
C           9.88610483365014   23.08388907243598    9.79919762289584
C          11.26690973793851   23.11962225854682   10.04104346626377
C          12.09713345551969   22.20770845469239    9.44728697654562
C          11.58250613478262   21.21599064727235    8.58882868678669
C          12.43442607388571   20.25657874365854    7.99184650898298
C          11.89998345291837   19.29329830157646    7.18128514149864
C          10.49776163741047   19.27527295044034    6.92394204641871
C           9.65307246520102   20.18759558022997    7.48527715634936
C          10.18040047151411   21.18110213746745    8.34250803507530
C          10.18814631932753   18.15255602210066    6.01848531519151
O           9.10278660326010   17.80647106166535    5.60237612658521
C          11.49784716038392   17.54219574805552    5.68474999596961
C          12.50881043097363   18.14780173175588    6.50497472144197
C          13.75176783657523   17.63279368729016    6.80606096970114
C          14.68773065099236   18.27672049795462    7.63802578726237
N          15.50707720887320   18.76253096257414    8.28057711348645
C          14.20437773734728   16.35277346955958    6.43381211760144
N          14.61147373515167   15.29994026249770    6.21681039310972
C          11.58277552291537   16.57795885415626    4.70205334950943
C          12.73103914515577   16.15360623710553    4.04329497996586
C          12.83478525199724   14.95860533040812    3.35134185213692
C          14.02081230421929   14.40258162851140    2.83421585946978
C          13.89540170890030   13.09502572574532    2.44717309756596
C          12.59895404290662   12.58068003662368    2.60962015327913
S          11.52420160148758   13.80772547773380    3.22529024551369
C          12.18823758673765   11.25045158820709    2.48218060087287
C          13.02247439579785   10.11994410502549    2.47342427276964
C          12.33685951562354    8.94559720511406    2.63925928822133
C          10.93985083006920    9.09920317064172    2.71147447359339
S          10.51284332274356   10.78259052946611    2.53087620011914
C          10.05032389283859    8.10403614307392    3.09541425970564
C           8.65982717751590    8.09598335159508    3.03025328604940
C           7.91770019715903    7.22369211813312    3.89193893913527
C           6.48564338488898    7.18610590042303    3.88577936973808
N           5.83339477993726    6.49173973282545    4.82124540774094
C           6.52207154333055    5.79992334548670    5.70667096835383
C           7.94294559573920    5.74406066164677    5.63771227247495
N           8.60099103607695    6.47008492100086    4.75647719290208
C           8.67232539815218    4.91467155596440    6.52492066075000
N           9.23615520124134    4.23526836862067    7.25488985898383
C           5.82524954351251    5.10112986544501    6.72309464369462
N           5.28962355946661    4.52535509097285    7.55626224344984
C           5.71375577215515    7.82712957031344    2.86197626381815
C           6.46230223277776    8.61799121509559    1.94427907248399
C           7.87923639762044    8.83049672040226    2.09210543771920
N           8.34578580779320    9.68014070141872    1.18658153970090
S           7.14056430919547   10.16905585331994    0.23636356180572
N           5.96270450734918    9.32265000063616    0.93763236298611
C           4.32758828490482    7.69553901931177    2.87022661306923
C           3.42454977423750    7.83057199623413    1.82459924096538
C           2.02433579729134    7.79043579365832    1.96894838545330
C           1.34111952283850    7.68538869406973    0.78653608868428
C           2.18732544898154    7.57800853616025   -0.32994448200473
S           3.85307979062959    7.77864873242588    0.13275878424737
C           1.81818501238498    7.20697162473383   -1.62609176706505
C           0.52059975307268    7.10186425866539   -2.15282638178464
C           0.47894052309828    6.53449720533528   -3.39918079597017
C           1.73941646288816    6.14375281415593   -3.89065264355536
S           2.99646980464486    6.61151689988579   -2.76432518262731
C           1.98041681722499    5.38903133514518   -5.02774876803715
C           3.23702447914920    4.90001500486710   -5.36405440921636
C           3.47940932995176    3.97383801112431   -6.36094762591443
C           4.74969483462574    3.38493936380884   -6.69511818396929
C           5.98790496041976    3.75996391623193   -6.22311710994055
C           7.19585139954295    3.14161624384583   -6.60042147510214
N           8.21670652799912    2.68278193915733   -6.86033147856262
C           6.23778946141788    4.81206320438344   -5.32121615788109
N           6.53022921836485    5.65438953007671   -4.59541046024035
C           4.50461974820797    2.30551766963246   -7.64955665741928
C           3.11218687505393    2.27388866879903   -7.94699039572324
C           2.57632326516388    1.35111004653965   -8.79688236829289
C           3.42386353593979    0.39053388333910   -9.39515611141017
C           2.92627531507826   -0.59789533586991  -10.26612781300996
C           3.76436682546984   -1.52548805760741  -10.82390467387524
C           5.13673855512762   -1.50234874180227  -10.53679175892048
C           5.65200048094222   -0.55329001993732   -9.69573616829910
C           4.81721274762367    0.41438530920412   -9.10220998260715
C           5.34451410963010    1.38964766503940   -8.22255393760550
C           2.42728045999647    3.33081521553394   -7.18057424414219
O           1.24071232436939    3.59580119668146   -7.21216624106449
H           8.29147510279332   22.10326559593009    8.77776001093763
H           9.24505021374739   23.81033463173614   10.27602207085240
H          11.67043905462023   23.87232385593076   10.70177687093683
H          13.16100479907350   22.22848099767132    9.63345346105072
H          13.49240999237480   20.31138084036231    8.19458548946898
H           8.59228576155830   20.14824296433280    7.28660781122577
H          10.63630719245199   16.13146433929087    4.41098812116117
H          13.63181984313007   16.74792323939850    4.11099748366983
H          14.93992152828528   14.95943055120283    2.80917346863360
H          14.70117461147955   12.50276752435275    2.05304353209589
H          14.09317810149548   10.19278246425445    2.41694446256104
H          12.80122340470693    7.97840177541762    2.71531889791249
H          10.49178664029583    7.23789713352491    3.57498540653225
H           3.90743448705802    7.36239187490294    3.81240467076475
H           1.55727930224999    7.82952038332267    2.93713439574020
H           0.27086110378358    7.62378978060116    0.70974793548483
H          -0.34617734601734    7.44033387188690   -1.61445516582118
H          -0.42211772946806    6.35778863663330   -3.95872034840805
H           1.13132385103323    5.11141801446875   -5.63626581072931
H           4.07020005981864    5.23094431034317   -4.75569291199916
H           1.51645665000009    1.34682204703911   -9.00449286224029
H           1.86807351566984   -0.61111008216077  -10.48335041927418
H           3.37390939642520   -2.28176542953347  -11.48852773962257
H           5.78466180916860   -2.24110126143913  -10.98445904333148
H           6.70841167480151   -0.53190401289730   -9.47110142328128
H           6.40325567227445    1.37653669504826   -8.01816794195479
