105
 SCF done       -210.622682363086          0.000907931347
C           0.90429398775828    5.84427622324542   -0.88103555984208
C          -0.26290279655580    5.48095233003214   -0.26573665085700
C          -0.46222345757464    4.15567536867534    0.14863375608333
C           0.50730205664029    3.21223149319382   -0.05778493273068
C           1.72044642977975    3.55122608157835   -0.69020737530349
C           2.72168786200990    2.57772863046428   -0.91417797816210
C           3.88626786882820    2.94318817537473   -1.53263549273356
C           4.09254910251387    4.29719299241977   -1.92822784177401
C           3.13990903614011    5.25498119273922   -1.73249872593487
C           1.92313724048867    4.89833318288206   -1.10844882275087
C           5.43734960661971    4.43182857025325   -2.51161803842870
O           5.94739127857450    5.41143994616692   -3.00596913263439
C           6.08694155224566    3.10257259565851   -2.31124139892927
C           5.06139721366665    2.16380628985174   -1.91173876052094
C           5.07308083924259    0.80447131320158   -2.09536379867740
C           6.14373665925353    0.10261544855023   -2.68013178639766
N           6.98776003788955   -0.49532903523433   -3.17905028864244
C           3.97490440023603   -0.03393409171038   -1.81129492178431
N           3.10985723742172   -0.75856878500757   -1.60296879841850
C           7.44164803845614    3.02359783657947   -2.43775550809854
C           8.33202281475858    2.04551786521776   -1.95006834738809
C           8.13115560099643    1.07697057908278   -0.97427482067730
C           9.27147946562311    0.32401407433824   -0.73889005869638
C          10.37073140161598    0.72145570792358   -1.53250800842696
S           9.98764428432741    2.02765497526457   -2.55308047824834
C          11.47602931739716   -0.10284736098335   -1.22395837558372
C          11.07216851682927   -1.03389267125463   -0.24195527975075
C           9.67633331922386   -0.79816401038395    0.08935563081306
C           8.89864351392723   -1.48222442369515    0.97702021050695
C           9.39182516817628   -2.56245250918215    1.73853818321325
N           9.78676030214117   -3.43500245055001    2.36868306514368
C           7.54856289454168   -1.13229199417521    1.19043784842237
N           6.45651262073213   -0.82856057128595    1.36461398738250
C          12.09593043988019   -1.88749662309094    0.14180750563112
C          13.28297023981087   -1.60758298456829   -0.52652739715326
S          13.12467274645598   -0.27536850944689   -1.65650447963566
C          14.53460227440388   -2.24861456475511   -0.34805954317016
C          15.68350086029060   -1.78933065812283   -1.03512548484686
C          16.98011486095605   -2.35162734944533   -0.81835010018079
N          18.03800589480876   -1.85366340781445   -1.48057359285832
C          17.86148116072675   -0.86907149941268   -2.31779888936142
C          16.58266559936451   -0.31919960014031   -2.53637399100557
N          15.53661136165591   -0.77505463151973   -1.90419552092725
C          17.19970812801030   -3.42176312154541    0.08177988620080
C          16.04840794332635   -3.92166511087928    0.73032237123799
C          14.73954167587953   -3.33990085264925    0.52515781495692
N          13.81044372072994   -3.96127475743185    1.25466594363347
S          14.49234760056592   -5.13991648417046    2.09764646169736
N          15.99993972082878   -4.93429901848880    1.59858912121090
C          18.50889639087076   -3.91302694442684    0.31667668966889
C          18.86888632732185   -4.97929630824504    1.13335582690025
C          20.24431527735285   -5.15539435331782    1.17734728319222
C          20.94305269254516   -4.20953475990292    0.39487391895370
S          19.89455383861634   -3.12811415914601   -0.42007545613732
C          22.32909334605180   -4.44558940981765    0.53203304184001
C          22.50843222369131   -5.55176829611796    1.40137229002924
C          21.20319706933744   -6.03277506411792    1.82726141059137
C          20.93292514017761   -7.07423819195728    2.66523202321969
C          21.95324600836799   -7.85251497299472    3.25205020965916
N          22.77617977931019   -8.48706996159892    3.73624335065515
C          19.61419995010599   -7.44072391558500    3.00870061515645
N          18.54681106358708   -7.74474811710102    3.29690184571609
C          23.84146329055458   -5.84204932731252    1.60936219820808
C          24.69565418224593   -4.95963450168647    0.93345098912373
S          23.79658420945172   -3.75594705673745    0.01004579586983
C          26.09169284269589   -5.07165035917393    1.02202659376016
C          27.07900301781796   -4.26041198078615    0.52392082909085
C          28.50769515117074   -4.45349983898142    0.69425309242525
C          29.14065996709779   -5.56026753279299    1.19806514026571
C          30.54096554174131   -5.67931242309571    1.32153545012480
N          31.67051246023100   -5.83889354964697    1.45007603582370
C          28.50663646625963   -6.74197389711029    1.63550886376134
N          28.06815103163422   -7.74006704823773    1.99714393040677
C          29.17569201382030   -3.25984814258545    0.18375665676709
C          28.18904192362785   -2.38266277829337   -0.35154125929702
C          28.51338661094912   -1.17779508041461   -0.90483523765390
C          29.86932152728830   -0.78266320051206   -0.94444811527295
C          30.26614332461964    0.45056105662715   -1.49723422814931
C          31.58546528137469    0.81436749807443   -1.52026808183755
C          32.56476573163366   -0.03981348290454   -0.99243556526896
C          32.21213070707889   -1.24526409159645   -0.44855160765317
C          30.86306409906865   -1.65109731085629   -0.40791883879880
C          30.49526241575062   -2.89558898386973    0.15517740738941
C          26.86349744327930   -2.99251193489707   -0.18466839723111
O          25.79817896798122   -2.52539632604673   -0.55397316244866
H           1.06386842971604    6.86339471339795   -1.20180156263121
H          -1.03821452994673    6.21272164946902   -0.09460143037986
H          -1.38894695823911    3.88556033465674    0.63232507118566
H           0.35724243542415    2.18996725851987    0.25671947238927
H           2.54816868744476    1.56768325654538   -0.57720986647382
H           3.31236718032315    6.27344339364147   -2.04740368400894
H           7.89837398853104    3.88128657835027   -2.92336377163192
H           7.20738730919083    0.97073963559624   -0.43566392360550
H          12.02443800128890   -2.67634020170582    0.86798203512280
H          18.73756159456810   -0.50122419102912   -2.83204597969993
H          16.41999975086216    0.49299314176713   -3.23005558913115
H          18.13722048411705   -5.56728701236488    1.65621370698477
H          24.21607344126306   -6.64305377325520    2.22214018218593
H          26.40924019913795   -5.92781937830880    1.60548912103565
H          27.74505261523890   -0.53263113974261   -1.30452674665568
H          29.50732598207939    1.10426168283652   -1.90202717606986
H          31.88111785808686    1.76205619865315   -1.94491253374706
H          33.60107738543064    0.26192460186148   -1.01855373961952
H          32.96288722051275   -1.90651314151512   -0.04144762680929
H          31.27226398040189   -3.52669265597556    0.55588089453225
