107
 SCF done       -210.013716317923          0.000243700310
C          16.03497795751156    5.98127982785828    4.42744026209108
C          17.02796745879640    5.96954744796199    5.36895520836479
C          17.04171790950888    4.98822474877012    6.37151248977811
C          16.06360438472722    4.03245811349418    6.41860958105356
C          15.02473292708845    4.01576401646230    5.46601440431976
C          14.00469128727323    3.03774259678696    5.51739975831094
C          13.00659506744118    3.05691073686156    4.58107612251012
C          13.00749496582325    4.04835648543210    3.55475938851428
C          13.97818036477465    5.00625996733614    3.48434188059078
C          15.01202662971443    5.01257090908086    4.44734448773479
C          11.85153297817991    3.83553397783461    2.66620503724172
O          11.49786826372409    4.50283150319101    1.72214413929002
C          11.22738118851255    2.56559898479426    3.14490758554316
C          11.81939613815613    2.22466162533734    4.42044761653735
C          11.25001178194757    1.44142150856165    5.38599012192228
C           9.93212563243831    0.93561514965679    5.31821028795896
N           8.83559612648602    0.60665095971476    5.41101939187947
C          11.86476829468333    1.14239923880082    6.61778155113594
N          12.33083266614227    0.83737455545254    7.62202349809459
C          10.39078848200846    1.86561384073811    2.33203880514675
C          10.02157789170058    0.50478121928044    2.43829664587749
C           9.04718467742229   -0.16256870368193    1.66687210872891
C           9.03537948482226   -1.51015064251818    2.09054864826016
C          10.02758503697674   -1.56895061144041    3.12586579193571
N          10.60463223530305   -0.38050109129862    3.29957958300935
O          10.32726141857291   -2.62076149535986    3.84971169319997
C          11.33786533011680   -2.44606182034528    4.83153878894032
C           7.98811014606753   -2.13587662874600    1.36597135726545
N           7.36995782485562   -1.22556741797129    0.56048103609145
C           7.98042752931121   -0.05611129066479    0.71616682467570
O           7.63851736892615    1.03874194842427    0.08271107403998
C           6.53003425327305    0.92774504476794   -0.79804098710348
C           7.54940024588741   -3.48446760248774    1.40384457126800
C           8.42139948202170   -4.54200078010798    1.76297092016020
C           7.96331235922023   -5.90139489960932    1.89411011543291
N           8.77846745232968   -6.81464958559522    2.43224042364969
C          10.02393483097099   -6.50270454828478    2.68019106301222
C          10.53949243179004   -5.21754513180546    2.29786547045520
N           9.72566126791997   -4.27724269313278    1.89211686916992
C          11.92321699262649   -4.93350350966187    2.39251856712361
N          13.04392074714166   -4.72496079321076    2.50855883026020
C          10.86167463189541   -7.44904841143173    3.31979994660571
N          11.57171112631832   -8.19374668446145    3.82371657210947
C           6.64657505841747   -6.27556763705820    1.52789260637762
C           5.80385820046916   -5.23773142619076    1.08069340624446
C           6.23773326663961   -3.85685383547441    1.03865254668013
N           5.26858296870410   -3.05116023460543    0.60872039508929
S           3.98076553247900   -3.93166272631177    0.25018235052557
N           4.55961190995417   -5.37660970253574    0.62658024616692
C           6.20448867129663   -7.62289440924988    1.59744024859962
C           4.88337592031869   -8.10809308491420    1.77824036193575
C           4.96639623641720   -9.51518522088195    1.69270142915514
C           6.36514630402811   -9.79477323889332    1.53770398440625
N           7.06873648644183   -8.66373715176243    1.47607538459825
O           6.90234283235209  -10.98341567038034    1.50174612454658
C           8.31433897619438  -11.03036133225716    1.35704257942197
C           3.66230257097744  -10.01042673227400    1.92519006661562
N           2.82462493365315   -8.97275035475909    2.21281791185277
C           3.52227537735910   -7.83921145607662    2.12707852345847
O           3.01010427053219   -6.65954875435165    2.38843543963554
C           1.63180745627760   -6.64036878737793    2.72670429727536
C           3.15616257200254  -11.33295688143358    1.96819142650486
C           3.60988201107643  -12.40843531154868    1.26649328439659
C           3.12932865431370  -13.77217978975176    1.40135478253212
C           2.42287445338815  -14.27714023505473    2.46157268859230
C           2.00117029989826  -15.61982491179129    2.55902650684203
N           1.62641342198161  -16.69679621735148    2.69140183960738
C           2.05248907115015  -13.54582603103593    3.61046838696492
N           1.73078532371116  -13.03130082773465    4.58506406566931
C           3.60460910608088  -14.53176457744247    0.25266203454166
C           4.43184298432821  -13.68465610483495   -0.53832904913437
C           5.02304130262221  -14.12393398798558   -1.68768578650382
C           4.80759856050460  -15.45527532855385   -2.10869006828512
C           5.38852916722538  -15.96326824004437   -3.28721862288712
C           5.15493717760075  -17.25245927426153   -3.68268632668185
C           4.33219379339882  -18.09079188763342   -2.91551979981004
C           3.75478569826619  -17.62911599277998   -1.76406931744376
C           3.97332377715954  -16.30651440536640   -1.32759368285899
C           3.37654783588097  -15.82439947869598   -0.14015030321568
C           4.49309105627945  -12.34133663095531    0.06544838939569
O           5.07432978848848  -11.37906047817531   -0.38112341182882
H          16.01897596860776    6.73436398128284    3.65319429795169
H          17.80788607073408    6.71587737846767    5.34654137743575
H          17.83178138238306    4.99374551734641    7.10737709677164
H          16.06874512571760    3.27654303450626    7.19006673543990
H          14.04093928588231    2.29003850054247    6.29442923526859
H          13.95693221100957    5.75256322605954    2.70403874199370
H          10.02540244573921    2.38501966799526    1.45256865504605
H          12.25685910364399   -2.08068047578616    4.37059878026792
H          11.50265826441172   -3.42415514164472    5.27852783805656
H          11.00807087318987   -1.73324374414132    5.59006220353829
H           6.29445187575552    1.94007004744425   -1.11857215080466
H           5.68359721143885    0.46982404397158   -0.28414984670659
H           6.79332620561494    0.30541606715333   -1.65544947868088
H           8.59728693394695  -10.68675997775213    0.36054274942086
H           8.60110984299428  -12.07044149157895    1.49654682685433
H           8.79500443374513  -10.38903709700855    2.09800215851517
H           1.40229141139479   -5.61604561293366    3.01232950120951
H           1.43313552823854   -7.32711848285175    3.55135525838302
H           1.02851100586036   -6.94326129358319    1.86897137858147
H           2.28010491532375  -11.44201507703226    2.59686886113201
H           5.64572029547969  -13.46166931883474   -2.27079025336829
H           6.02035014915785  -15.31290623232113   -3.87436999264921
H           5.60185019799763  -17.63295198381589   -4.58895128684723
H           4.15786827736757  -19.10503195059066   -3.24196790731402
H           3.12161181556744  -18.27112813052295   -1.16948179398122
H           2.74330087036925  -16.48993717091755    0.42483854351530
