100
 SCF done       -200.837471055209          0.000276932070
C           1.30750345404115    6.55430094965285    0.53152962581896
C           0.35756055193547    6.46670752415839    1.51282262397247
C           0.29509291028988    5.33495047555108    2.33944229427876
C           1.18357223656534    4.30730858031743    2.17490290524236
C           2.17412537290373    4.36398755429402    1.17368802386685
C           3.09004840268245    3.30161960811050    0.99531124991495
C           4.03663111470573    3.38993020015636    0.01081460157515
C           4.10645998671974    4.55098313692409   -0.81384775651571
C           3.23094678969585    5.58825135445560   -0.66742661639867
C           2.23720021959022    5.51428936792243    0.33453889053433
C           5.23482517997312    4.41501383463888   -1.74896176905846
O           5.57306206160487    5.16569094601549   -2.63476472153782
C           5.93809643021827    3.16323522074834   -1.33411207384103
C           5.07594564663235    2.45595146192504   -0.40995281648691
C           5.06334572854783    1.10684082150922   -0.16666034391862
C           5.95366091006457    0.19290188653140   -0.76141014557647
N           6.64770945943733   -0.58578785868866   -1.24179628984029
C           4.09607130208448    0.46359031100135    0.63420515296200
N           3.33116915278454   -0.10991855160352    1.26854931224249
C           7.20669330650644    2.95639097386378   -1.77967713584477
C           8.20367151839987    2.10273453910401   -1.25550164578331
C           8.28848102892627    1.53261038000742    0.00625214239990
C           9.44974591070741    0.78810224771948    0.16905286700371
C          10.26695639182420    0.79034874711057   -0.97697069380282
S           9.61037258265688    1.72123148218814   -2.23986763860956
C          11.41716683294931    0.00526509520316   -0.70310740601258
C          11.32499869650601   -0.49154838571455    0.60730272732394
C          10.07588317875653   -0.03368236797879    1.19297769008180
C           9.56511453495780   -0.32783829930784    2.42240345739456
C          10.23452534610553   -1.15761453422009    3.34695566572084
N          10.77245329546695   -1.82961801186982    4.10379236627221
C           8.31888873858392    0.18650856163446    2.84024216683775
N           7.30807352636792    0.61725737336664    3.16806249651517
C          12.43510792909438   -1.25403896662530    0.97968024925833
C          13.36641532385394   -1.34423365536291   -0.03438334555381
S          12.85288752925377   -0.47991817161935   -1.47888331657538
C          14.64965927179684   -1.99855219284355   -0.03674545287446
C          15.33905969084492   -2.22200186289141   -1.23368457385887
C          16.58288933301214   -2.80770252918623   -1.24937417373084
F          17.17343020815542   -2.96262483778203   -2.44684231318892
C          17.24458900504250   -3.20981837711105   -0.07884349392650
C          16.55231049321648   -2.99158899145609    1.11765205644012
C          15.30528288095313   -2.41341485719375    1.13269744517747
F          14.72993523605702   -2.22512364577576    2.33298430867369
C          18.56886485443635   -3.77683681426770   -0.07033472345507
C          19.31399646952215   -4.27257140461779   -1.12104910310695
C          20.57994782144527   -4.70068231277579   -0.71261515953850
C          20.79715713641737   -4.52406186646291    0.66316268988709
S          19.44572732094207   -3.85165695629541    1.45306832631977
C          22.11119489482413   -4.95179709170689    0.97679474045953
C          22.73038187763601   -5.39848496797572   -0.21005295919332
C          21.77720030467227   -5.27922026305807   -1.30439136978621
C          21.95518365219857   -5.65572575970697   -2.60175759378631
C          23.14304841651355   -6.25763372630592   -3.07353242335084
N          24.08360485792780   -6.76654394880729   -3.48517721524401
C          20.94446989583860   -5.50084210956577   -3.57594683079779
N          20.13072964732898   -5.38396427404540   -4.37475444809399
C          24.04690660536462   -5.79923520126604   -0.02047532252917
C          24.44798595196751   -5.66788123599977    1.30271638104735
S          23.13935926829631   -5.05339856978811    2.32383631046096
C          25.65541475829838   -5.96104837382039    1.97090697172345
C          26.89712815275334   -6.25844323966191    1.48445665466468
C          28.03347864393003   -6.60318628102930    2.32574706733231
C          27.99688256411278   -6.96321349148965    3.64825834530850
C          29.13883177987110   -7.30289632081987    4.40455026306616
N          30.02383532783979   -7.58272075821119    5.08006266286621
C          26.83556755679116   -7.08537309119622    4.43998583634966
N          25.94119389653460   -7.22716155042701    5.14701133007930
C          29.22982282426678   -6.57997744709419    1.49416667413028
C          28.84031041055128   -6.31212920775697    0.15184943580921
C          29.74791138310455   -6.24177920866348   -0.86542416198156
C          31.11751589182806   -6.43574760733764   -0.57904812177654
C          32.10087147475314   -6.37751534663709   -1.58598206188513
C          33.42284834843517   -6.56205303563579   -1.28359337034133
C          33.81891374176701   -6.81334171796440    0.03860331980369
C          32.88849932559286   -6.87748807511538    1.03992225398169
C          31.51829036706291   -6.69328888810178    0.76401447970960
C          30.55385700850089   -6.76318548775597    1.79534667253387
C          27.38128688860788   -6.13153047276262    0.08472469856754
O          26.73874693089925   -5.88352072849521   -0.91335320757051
H           1.36053660519204    7.42340626815362   -0.10776159654629
H          -0.35034046928636    7.26901739072027    1.65759261891179
H          -0.46139823014337    5.28125737867648    3.10787531228818
H           1.13798729795448    3.43273055284028    2.80690996754560
H           3.03013880884784    2.44848403780883    1.65287993974961
H           3.29624211580440    6.45625096736894   -1.30653150835398
H           7.50794973058740    3.59246551394951   -2.60687553455888
H           7.55650318786120    1.69997253078878    0.77495084307129
H          12.54948264208312   -1.72120989885532    1.93993488810185
H          14.89902906662768   -1.93146114552088   -2.17529524311595
H          16.99501955105447   -3.27482144089478    2.06025811210689
H          18.95729080605701   -4.32572588453661   -2.13252858734440
H          24.70501323884907   -6.15679489884728   -0.79133908711388
H          25.56264397157996   -5.91256460095404    3.05004440922640
H          29.42296674757208   -6.04141512795568   -1.87556760479000
H          31.78963459967789   -6.18359163416842   -2.60196981644082
H          34.17047179249283   -6.51515728967303   -2.06119446942245
H          34.86591103787284   -6.95644873745070    0.26004477741929
H          33.18842164718526   -7.07246650938817    2.05911076003764
H          30.89092087043342   -6.95487719613607    2.80151817673988
