97
 SCF done       -193.167636234548          0.000481294352
C          -0.82768348963574    0.93513656914079   -1.40694550586023
C          -1.45356142101902    1.14451192067206   -2.60586771704239
C          -0.71038317521989    1.50580533579563   -3.73959411872495
C           0.64762263918945    1.65361158717208   -3.65922966418338
C           1.32420314983105    1.44844926692987   -2.43980471252522
C           2.72582877340523    1.61085771913753   -2.34912183407250
C           3.34849865294459    1.40585472732386   -1.14778095542895
C           2.59134992854024    1.01077356456875   -0.00591264851827
C           1.23607377304072    0.85560185335576   -0.06347876567161
C           0.56896544508593    1.07789978416623   -1.28921209577035
C           3.50165775857672    0.80040436838838    1.13119998017027
O           3.22630443371657    0.51500047194107    2.27351174489340
C           4.87707164253010    0.94993582604331    0.56440072239191
C           4.74946877222064    1.52727381951892   -0.75848307646459
C           5.68349315425421    2.28120479781829   -1.42007097254332
C           6.96427247613352    2.56893383548956   -0.91100418549406
N           8.00817191239548    2.84414951807523   -0.51949644743603
C           5.43595185001075    2.93686779417577   -2.64483228390569
N           5.28484132974940    3.49509307109015   -3.63568851780533
C           5.92872695587031    0.46953543588920    1.28031610483816
C           7.23129290588164    0.14725679922177    0.83414256655822
C           7.67375740026205   -0.09351210852311   -0.45815008828949
C           9.02498743112138   -0.41272088124445   -0.49899454691385
C           9.62417586354757   -0.42879615010398    0.77487833681282
S           8.51754134751210   -0.06384037654646    2.01448915406917
C          10.99663158479962   -0.75473159413710    0.62002168890484
C          11.26292529655961   -0.93366366316676   -0.75315842754762
C          10.03544748483965   -0.71438674347094   -1.50006314072276
C           9.85330814495467   -0.75282389106344   -2.85075784816762
C          10.89728695563903   -1.05119942950986   -3.75235671505910
N          11.73528175783855   -1.30277788119776   -4.49253443542565
C           8.59027405882675   -0.49772169652610   -3.42681851177071
N           7.55619831847702   -0.29545594040637   -3.87924509507565
C          12.59217161000214   -1.26957376862751   -1.00319330538256
C          13.31793777371766   -1.35144855268753    0.16919869913510
S          12.37117867516709   -1.00237791260310    1.59629310503843
C          14.68829123843583   -1.72207270150889    0.32101964280372
N          15.18346335829669   -1.80661699267084    1.56792801155824
C          16.39589886345920   -2.27494105542109    1.68787720161483
C          17.08947195371156   -2.74709022314198    0.55045054237396
N          16.57900646997757   -2.47681064324826   -0.65963568414195
N          15.42045534627493   -1.94265790408611   -0.77874340191044
C          18.31649407677281   -3.47821768555414    0.60639094520397
C          19.08238515044935   -3.88000663202791   -0.47065883389331
C          20.18161525835713   -4.63744660359861   -0.06839783460875
C          20.24317480805776   -4.80960996970724    1.32706060917320
S          18.96397275990527   -4.02827686988613    2.14097339376779
C          21.35398788294372   -5.63280449904783    1.63642120168069
C          21.99310013092035   -5.98921528716591    0.43135815623414
C          21.29709489900316   -5.34997416540358   -0.67425691556314
C          21.63154809988001   -5.39428565864174   -1.99439876221663
C          22.77078403302586   -6.08351005038175   -2.46575597230072
N          23.70037312628910   -6.61857627276885   -2.86959569305974
C          20.87988384227526   -4.72623737670582   -2.98587392955343
N          20.27831508328384   -4.18625456221596   -3.79833238452549
C          23.05699041458065   -6.86452026648945    0.61735586958425
C          23.24158457666719   -7.18272063942646    1.95432575386789
S          22.09667798608250   -6.33442544693770    2.99630398731089
C          24.18902124450545   -8.02785055114915    2.57618551798507
C          24.82991622949021   -9.09920260014593    2.02503912088773
C          25.86368171362491   -9.88090903993081    2.68019445017874
C          26.63090817081708   -9.47537026796347    3.74094341022125
C          27.64632935292349  -10.26133562945959    4.32458095279389
N          28.47780400456207  -10.85733499865103    4.84511699370925
C          26.53687498407371   -8.21331416356016    4.36420942585280
N          26.52352168179539   -7.19898780095962    4.90255284855814
C          26.00527838312835  -11.13422626161306    1.95200713287435
C          25.14070590208340  -11.09847789180362    0.82103182515159
C          25.05527377916507  -12.14076952932101   -0.05649683452036
C          25.84632007839588  -13.29047551709344    0.16253765159925
C          25.80125963290385  -14.39671130988961   -0.70838428668834
C          26.57094917743454  -15.50362246448762   -0.47289431536824
C          27.42037379672328  -15.55149663847112    0.64256948527594
C          27.48851107520756  -14.49312022786934    1.50740525922652
C          26.70954737260731  -13.33743006765418    1.29562075970803
C          26.77692256023761  -12.24155451494313    2.18652425554318
C          24.40868075202921   -9.82200745882051    0.79314361369428
O          23.58094924700207   -9.48362108370268   -0.02498567441069
H          -1.39472743618489    0.65605186830799   -0.53092257322135
H          -2.52432617553533    1.03220007139728   -2.68723948955661
H          -1.21982818625708    1.66714284450110   -4.67771287090697
H           1.22392572216961    1.93482894897347   -4.52823215308492
H           3.27625155994044    1.87973562761346   -3.23713917567391
H           0.67892529142482    0.56471448090176    0.81464440319769
H           5.70801326395674    0.24263627563273    2.31911682001525
H           7.02292568348604   -0.07839997902475   -1.31301134231035
H          13.03432815141358   -1.45460452841469   -1.96505158155521
H          16.83867555539413   -2.26978398342984    2.67585885196120
H          18.81799139094381   -3.62542775877647   -1.48064157408575
H          23.67834110988393   -7.24974666203038   -0.16831421499316
H          24.37076722667960   -7.81194650485982    3.62280715740949
H          24.39289209090714  -12.08703174106566   -0.90766453316822
H          25.14536999807433  -14.35355679299845   -1.56550633856133
H          26.52920302748375  -16.34804162864545   -1.14441987187118
H          28.02136031804514  -16.43199223690699    0.81339439740212
H          28.14226264927662  -14.52503927204612    2.36660028107818
H          27.43345909157992  -12.30996698070771    3.03948982511488
