107
 SCF done       -197.902756183754          0.000955128938
C           5.07319512910090  -11.72370710921454    7.91725953957562
C           5.80500933342015  -12.21312578710052    8.96499771754342
C           7.00595166049570  -11.59319321014503    9.34125551691985
C           7.45848903726163  -10.49342460483810    8.66482729952133
C           6.72846710594381   -9.96145232274354    7.58245885139373
C           7.18466634135373   -8.81724393176524    6.88911306711316
C           6.44663605054985   -8.32241545663727    5.84726233684671
C           5.23689384443432   -8.96925413823041    5.45731010239545
C           4.77111882200538  -10.07207880376079    6.11300287466294
C           5.50972653616474  -10.59268137215216    7.19969818945120
C           4.65660311033236   -8.26506419348974    4.29787500779642
O           3.61431739816705   -8.49717129246884    3.73068835743018
C           5.66448828277509   -7.23053943881387    3.92614997577353
C           6.64002910359973   -7.15252061149610    4.99869146454010
C           7.42727621298027   -6.07259259264553    5.30180761411135
C           7.37169437848030   -4.83616420830782    4.62497378322394
N           7.33262196918954   -3.78232714964280    4.17073006763005
C           8.33189378035821   -6.04261187561656    6.38185692959767
N           9.11062984852201   -5.98350405255194    7.22372770624783
C           5.61561319429422   -6.62461112617725    2.71611408457982
C           6.67003602667060   -5.89033147046201    2.06948865511775
C           6.35068083719192   -4.77399558552318    1.26592328972621
O           5.03734552838637   -4.46506982285001    1.16675551165070
C           4.66744606829487   -3.29603116439912    0.47341144741400
C           7.38014487532893   -4.05792464486089    0.67948441716576
C           8.71437722709193   -4.43300512131554    0.83222571239407
C           9.03942178918902   -5.55215350477513    1.63612283690498
C           8.00760509849853   -6.26146055644884    2.22469341065100
O          10.34812739975647   -5.80325627642101    1.83833226337794
C          10.72388946020761   -6.96646287404174    2.53553583496869
C           9.74577908658552   -3.65547592511964    0.19692382821448
C          10.95466257234713   -4.08007149579336   -0.35273409565509
C          11.75991843066065   -2.98321027798400   -0.83873074076541
N          12.94974392862728   -3.21157766031450   -1.39933320026975
C          13.34896821856907   -4.46015981287886   -1.50071787094736
C          14.66820694840777   -4.68374470685584   -2.13231209082870
O          15.38157648522811   -3.77150990268261   -2.50334648643088
C          15.04732112143650   -6.09768220143969   -2.29266947835692
C          14.28525595147250   -7.11658057406348   -1.88189095120851
C          12.98241401041790   -6.95047996888814   -1.20965964101880
O          12.35232517325995   -7.89870426169644   -0.78873257327133
C          12.52805047793014   -5.54670618929408   -1.06208935007858
N          11.35287127633287   -5.34657711219347   -0.51492306853830
C          11.14888772279555   -1.73213455963614   -0.67665094680392
S           9.59517543622072   -1.93949996855681    0.04888433609168
C          11.68134432377551   -0.44807178395446   -1.00226272382589
C          10.90105146730266    0.72321812509033   -0.83370268583069
O           9.63893446223474    0.53221939005930   -0.37505825370311
C           8.78342044211808    1.64700968975355   -0.24457884489059
C          11.44638163701207    1.95522934370701   -1.12843147997170
C          12.75303919976983    2.08359603147839   -1.61113168162623
C          13.54003954545313    0.90754897460390   -1.77339770552754
C          12.99427794560134   -0.32479059394824   -1.47102243645324
O          14.79179338234085    1.07843872351480   -2.24497024314006
C          15.64583670150458   -0.04515377573535   -2.33505497196194
C          13.37433003268674    3.34390753364545   -1.86584803832647
C          12.83644927350155    4.55598161222393   -2.18321856688141
C          13.63985709506969    5.76060311063462   -2.34019762456102
C          14.87042571884206    5.98526799762583   -1.78273665494175
C          15.59600872962411    7.18436674058541   -1.94042710464785
N          16.23180428445076    8.13554700246764   -2.03635642689265
C          15.55030883852967    5.08931817443028   -0.92935416530804
N          16.15686412382147    4.43943340145968   -0.20240512386076
C          12.86103429959882    6.72671565927310   -3.10088006889960
C          11.55720635121830    6.19116200434176   -3.29726216625460
C          10.59268530955781    6.87560286501731   -3.97904300472885
C          10.89740745924852    8.14854299213794   -4.51113975494146
C           9.94495381940922    8.89970160454710   -5.22744591826918
C          10.26390869230798   10.12795927443981   -5.73972274755404
C          11.54896595750373   10.65989374726306   -5.55649362081191
C          12.49701023082698    9.95629086791177   -4.86495115633836
C          12.20281756932630    8.68804051460543   -4.32444783013127
C          13.17959711907431    7.95772545077226   -3.60948974260129
C          11.46579874311869    4.85820654924383   -2.67309838637071
O          10.46673417750530    4.16984955751771   -2.61977577757351
H           4.14772077668339  -12.19698064789997    7.62338886107561
H           5.46270763614439  -13.08031484670431    9.50965634369273
H           7.57070751439103  -11.99131676040818   10.17092860257428
H           8.38076756878498  -10.01034739587842    8.95264909747355
H           8.11404009382055   -8.36270266932372    7.19541006842315
H           3.84759150489968  -10.54162286469875    5.80840807012022
H           4.69060885612413   -6.73388684386284    2.16083377435795
H           3.58402496893033   -3.23580286630978    0.56195611932626
H           4.94150344811587   -3.35187536208533   -0.58475867359741
H           5.11983439317437   -2.40839606980419    0.92469112855293
H           7.17137042489482   -3.19516638001520    0.06672094534103
H           8.22207942203118   -7.13903282652267    2.81392089852917
H          10.33680949415351   -7.86514532465772    2.04812853891722
H          10.39659903898545   -6.93527413519293    3.58093864764541
H          11.81144314746749   -6.98699446559288    2.50021639818594
H          16.00252583894226   -6.26637043997605   -2.77173849482218
H          14.60206875311824   -8.14261163361179   -2.01428596179044
H           7.81297612859017    1.23958936112654    0.03328285921019
H           8.70034897066375    2.19570183794340   -1.18630061322859
H           9.13208264864087    2.32179169593547    0.54232930936206
H          10.87263989531112    2.85080480802552   -0.97573918458063
H          13.56598013977400   -1.22904053031141   -1.58945017418312
H          16.59643856826367    0.34338919249077   -2.69540147120277
H          15.26464456664604   -0.79043032153768   -3.03703467362997
H          15.79009385317248   -0.51342293937007   -1.35854199111564
H          14.45706575314914    3.28957517339238   -1.83917203505682
H           9.60898934077375    6.45034733504465   -4.11337478107931
H           8.95687057905170    8.48526047609596   -5.36545382551711
H           9.52806409711510   10.69632170604030   -6.28876984616716
H          11.78410608168683   11.63075325683963   -5.96629457301613
H          13.48756619526278   10.36185591316944   -4.71995314824906
H          14.16144107828264    8.38782269958540   -3.49039684393330
