106
 SCF done       -211.942825382072          0.000768946304
C           7.81268338042755   10.68041345606250   -3.80112731247941
C           8.54722137943941   11.43887310839233   -4.67185641217841
C           9.54603189890652   10.84628825576853   -5.45872472821708
C           9.79700007841712    9.50446582969854   -5.36400847262654
C           9.05854900749314    8.69323489069566   -4.47885977482333
C           9.30714412164252    7.30442500241595   -4.38391053707891
C           8.56907121866010    6.54881285311331   -3.51409237662747
C           7.56815701782899    7.16041995526231   -2.70284401107059
C           7.30207389726377    8.49694717140562   -2.78058680301948
C           8.04519877420810    9.29635656829027   -3.67849642815516
C           6.95456308150922    6.14121790225464   -1.83275573715113
O           6.03828959456120    6.27152377709018   -1.05498409742599
C           7.76081919218713    4.90504310608578   -2.05842139049426
C           8.57620872058397    5.11745326001041   -3.23485840616205
C           9.02528947726639    4.14378009501422   -4.08909936977530
C           8.74305427793041    2.77481147255885   -3.90851304744065
N           8.49136546961691    1.65944340502508   -3.80443456083583
C           9.72677065593686    4.41156404568858   -5.28130181537233
N          10.31647157003453    4.58036313092562   -6.25155590799267
C           7.70519509756885    3.90469988245805   -1.13881657000743
C           8.62829669417640    2.87157899660082   -0.85798229849916
C           8.38206278481774    1.78173606954712   -0.03469519224531
C           9.50522937002049    0.97981601697703    0.13235586232091
C          10.63593144504963    1.47682158101807   -0.54943400163624
S          10.30652018246135    2.91264885645358   -1.39793324646697
C          11.73200075411363    0.61641265731743   -0.30537255056340
C          11.29830689520171   -0.42290217909096    0.54047100417815
C           9.88509129066183   -0.23284471435035    0.83581337879066
C           9.09377980203968   -1.02455306634543    1.61487609361711
C           9.59347479107415   -2.18060359991109    2.25053295670772
N          10.00464257272964   -3.11847275908771    2.76669345074274
C           7.73152794456537   -0.73684064580934    1.84462856096891
N           6.62617191032199   -0.50609696356234    2.04127205393575
C          12.31379351519499   -1.31306270185983    0.86264329917104
C          13.52795112066732   -0.96697250988783    0.27665898116350
S          13.38958972481448    0.49215592434655   -0.69208866599757
C          14.76187347259950   -1.66850048757522    0.39829950952150
C          14.87557466863391   -2.84252153848555    1.08171664179129
C          16.10192982912174   -3.52664649088839    1.24327751596595
C          17.29788538138845   -3.00427088107067    0.86030957227350
C          17.34050482394852   -1.62195424174401    0.24223042746325
C          15.98669962060918   -1.15002398870447   -0.33947348776486
N          15.90423689056394    0.28386520052250   -0.45013862744897
C          16.59163698596237    1.01200268112744    0.31241663048559
C          17.54154794723879    0.45080755699688    1.28993305760462
N          17.88342360050234   -0.75799804839511    1.26926060275590
F          18.01684083895655    1.25528508764121    2.23036045223915
F          16.47032054258558    2.32914539356639    0.23257017389741
C          18.54699247869600   -3.62228060577299    1.14209563794799
C          19.81560647277746   -3.12552069844499    0.88290105457911
C          20.81898720972207   -3.96888370056258    1.34816729167578
C          20.31964373671105   -5.12775757177185    1.97027159888669
S          18.61252373149856   -5.17440448082156    1.96976544291748
C          21.41198222886530   -5.89667367456608    2.43548479765007
C          22.60975760053594   -5.21930297680543    2.10899203176378
C          22.27377169892077   -4.00066380655081    1.39235872244387
C          23.12616767765696   -3.08808401663003    0.84565977047373
C          24.53186186366049   -3.21759266788011    0.88889439035461
N          25.67464754344165   -3.30147488749543    0.88672443690067
C          22.64910779697658   -1.95353569908006    0.15447195902763
N          22.25812446091514   -1.03846905756252   -0.41554805501275
C          23.74796805394529   -5.86901729092823    2.56571431625615
C          23.44506680180778   -7.04356507124022    3.24272416330597
S          21.69951636379506   -7.34346404193179    3.27817099378945
C          24.25133541020325   -8.02664456692727    3.85212061087450
C          25.58086377959313   -8.01554796866188    4.17178440764702
C          26.28720183315309   -9.15436247474286    4.73804418490100
C          25.85195844402476  -10.45433718918100    4.77709858555933
C          26.59724862586148  -11.51853758049458    5.32763874834896
N          27.14574051652684  -12.42862496638105    5.76222140809398
C          24.63297496966233  -10.93376503841276    4.25351474589434
N          23.67302445304014  -11.40723370538880    3.83628169606763
C          27.59227452698413   -8.69196403143123    5.19335322052076
C          27.72851898233993   -7.31836613498258    4.84755860037791
C          28.85706173206550   -6.60651699728239    5.13566264448409
C          29.92379923300262   -7.24991880358036    5.80152740265240
C          31.11405694560389   -6.56933822350848    6.12452624482740
C          32.13191276717009   -7.21183037293575    6.77583450209607
C          32.00398875826480   -8.56289537138185    7.13140363950437
C          30.86113449481613   -9.25304195268727    6.83107099838634
C          29.79310988077978   -8.62274955154957    6.16062789289653
C          28.61198905132997   -9.33352211952266    5.84596193366714
C          26.50478808516068   -6.85125471784779    4.17718450681071
O          26.30223164539359   -5.72745128749764    3.76828929319502
H           7.04240910290438   11.13122128812955   -3.19265003125914
H           8.36279122574921   12.49914610709220   -4.75881232011148
H          10.11572306940718   11.45870001040422   -6.14145944046484
H          10.56264950412203    9.04310614682801   -5.97026323146297
H          10.08554624120345    6.87228397891877   -4.99361225078152
H           6.53375988287512    8.94056838714519   -2.16497374124205
H           6.86527630695926    3.96322237203122   -0.45187885631994
H           7.41556066793679    1.59185563222730    0.39635267989443
H          12.18369564505450   -2.16925865581844    1.49731852517685
H          14.00530516366268   -3.27893955706977    1.54389587105025
H          16.07819632354783   -4.48940486649395    1.73306330039804
H          18.07589455837440   -1.61689529078117   -0.57372973192628
H          15.90147952465458   -1.52606163445979   -1.36982697609492
H          19.99514052346363   -2.18106325514804    0.40643576344557
H          24.75543443235817   -5.51697137679211    2.43925504925881
H          23.69933541084002   -8.91927123711341    4.12381570641377
H          28.93344567087848   -5.56593832088043    4.85717200920692
H          31.20626570417967   -5.52927871641170    5.84790771273535
H          33.04071422434486   -6.68272133665017    7.02072301587122
H          32.81645122581194   -9.05480775833675    7.64482568731378
H          30.75891219732917  -10.29376136417612    7.10154326433420
H          28.54377022666802  -10.36978562768347    6.13632978098775
