103
 SCF done       -205.472240845176          0.000405480831
C          -0.64535206973928    0.13940421699227   -1.21530953107582
C          -1.25827935300777    0.95871466691278   -2.12421413826824
C          -0.51597940532531    1.92232062064885   -2.82330968831176
C           0.82832792415078    2.05401443403608   -2.60418557923604
C           1.49130532170084    1.22833235140028   -1.67378625506320
C           2.87824445616713    1.36690455286638   -1.43693921739171
C           3.48810072367500    0.54881540044955   -0.52473970794416
C           2.73333465054199   -0.44647006902073    0.16318984745227
C           1.39142562885196   -0.59589777454346   -0.04009738997814
C           0.73705877131309    0.24751735399103   -0.96599396541094
C           3.63115762501102   -1.22101365017680    1.03466985307080
O           3.35111041671473   -2.10509295921086    1.81010793761936
C           5.00707512494148   -0.72901533570423    0.71460802280174
C           4.87151404073063    0.48466538541262   -0.06617850232135
C           5.77295142813212    1.51358148630805   -0.14977498102049
C           7.02832660436882    1.51464266699236    0.48761468330130
N           8.05144067471220    1.56411564393579    1.00678781780927
C           5.50991899052800    2.73360847823640   -0.80856962747818
N           5.34554557120846    3.74556325162433   -1.32351499626834
C           6.07107486418656   -1.48699853699701    1.08982002108122
C           7.39830348871707   -1.45000992095504    0.60000272942903
C           7.86620617749437   -0.92020106290261   -0.59312989187105
C           9.23683410183668   -1.09284017306050   -0.74053708066124
C           9.82317867053858   -1.77057662814294    0.34511496199884
S           8.68361427283436   -2.20452229616942    1.53110443197145
C          11.21771249089850   -1.87423766421770    0.10352727327841
C          11.50950794984012   -1.25836607654105   -1.12847902737975
C          10.27525896516747   -0.73525627439512   -1.69223269538868
C          10.11446469223638   -0.02394825072991   -2.84423590576329
C          11.19643022088605    0.28683766999628   -3.69503507118819
N          12.07696786072289    0.53172987621678   -4.38652788778781
C           8.84526651030615    0.44441984337125   -3.24632532173926
N           7.80625474882503    0.81361975914307   -3.56052483815970
C          12.86425530553011   -1.31304303448950   -1.45621158506554
C          13.59182208920561   -1.96659557574224   -0.48121189981270
S          12.60079494512001   -2.51610071375380    0.85879023422450
C          14.99337818169327   -2.25390521673838   -0.41712903923866
C          15.92164717759491   -1.93423551860652   -1.35734637591833
C          17.29325356922029   -2.29358161826160   -1.16489070070487
C          18.27239299687894   -1.99850536394758   -2.09688158469758
C          19.61341207563590   -2.36158840455862   -1.89209755961724
N          20.70607576846966   -2.66613432590441   -1.71079051051431
C          17.98029444643775   -1.32758290223583   -3.29568293747125
N          17.73725651476246   -0.78167429401363   -4.27640456988340
C          17.59476864290506   -2.98453313177891    0.05145001656654
C          16.61032575017842   -3.26895871916752    0.94302520896180
O          15.31694081687185   -2.91515295315744    0.72753786077112
C          16.79318271648089   -3.96246244957104    2.18571327773785
C          15.79449094689353   -4.26519137149776    3.09178676285957
C          16.29328075430055   -4.95360912642417    4.19616917721325
C          17.68011196513650   -5.16990561458881    4.12010912310586
S          18.36803177849452   -4.52831085540884    2.69504493787868
C          18.08949990043434   -5.87955965907405    5.27737279427295
C          16.95599314235939   -6.10963275457874    6.08782206866552
C          15.79036564001125   -5.54039296523854    5.42941190095825
C          14.49354285306138   -5.55685245012908    5.84899625709180
C          14.07035632344145   -6.17209504405047    7.04813917074561
N          13.68737641843602   -6.67031913162048    8.00612604908711
C          13.46497953470961   -4.96194654926671    5.08568355886202
N          12.63416469082602   -4.47874052926592    4.46033727512806
C          17.25191511542960   -6.80249861888309    7.25551585196949
C          18.60264146671561   -7.11029875577004    7.35147599475459
S          19.50876490777196   -6.52342181084612    5.94948675606221
C          19.36293553955715   -7.82389448771223    8.30418324459184
C          19.03102686794273   -8.34348153181179    9.52239936683763
C          19.94971624284280   -9.12124692749079   10.34435403371339
C          21.15497393922151   -9.64929818749315    9.96008373741811
C          21.98841650642104  -10.41067012370092   10.80800374041580
N          22.71728495795649  -11.03214759332467   11.44043178476305
C          21.73487838654212   -9.55642338622613    8.67697672837546
N          22.26818177486432   -9.54580605157830    7.65951907917779
C          19.32844302669817   -9.31655009634390   11.64775258227303
C          18.02491870338214   -8.74628134963623   11.61679910535326
C          17.18859625605600   -8.78982694176114   12.69527136953719
C          17.62924062797589   -9.41693194337615   13.88156706762187
C          16.81121458755761   -9.49800788032704   15.02555058095462
C          17.26150982393716  -10.10822821633899   16.16486021931759
C          18.54911364122625  -10.66365953391157   16.20995416824597
C          19.36876881788912  -10.60195086318728   15.11597190900217
C          18.93687891173823   -9.98214991721187   13.92559356067973
C          19.77880034690428   -9.92209805376987   12.79171180937406
C          17.77700746847148   -8.14539726335150   10.29789583532411
O          16.76028137105266   -7.58257912899615    9.95129177700505
H          -1.21180500373732   -0.60469873728300   -0.67471598326739
H          -2.31802910443030    0.86822733101255   -2.30989229018204
H          -1.01517999666030    2.56064533528499   -3.53670509346735
H           1.40366680656802    2.79633004614670   -3.13740260975818
H           3.42906262972604    2.10792296563673   -1.99492301605604
H           0.83537506911532   -1.34994620530964    0.49686754434624
H           5.84729710477796   -2.26409795970527    1.81454753410917
H           7.22323088524520   -0.47212209022988   -1.32832798401094
H          13.29692945872953   -0.90312697674839   -2.35006419619621
H          15.63220317868381   -1.41137233797469   -2.25333253475652
H          18.61138732393254   -3.28187527055392    0.25524759807542
H          14.76718824133894   -3.99131273020734    2.93623913824374
H          16.54343997963180   -7.07429071323726    8.01795123352422
H          20.39060307783757   -7.96746333953205    7.99062228441190
H          16.20296996227416   -8.35201531402603   12.64079933872952
H          15.82102275105060   -9.06854323196318   14.98464475269696
H          16.62835220983898  -10.16627994357030   17.03746015988652
H          18.88855601939116  -11.14158250557226   17.11658176504713
H          20.36020759173280  -11.02950019478362   15.14541453533067
H          20.76349543512676  -10.35575017496238   12.86087232290004
