109
 SCF done       -215.673408223864          0.000785291167
C           0.12629694682628    1.96851119504708    3.94703215891949
C          -0.26402541985658    3.27636162309041    4.04797565116437
C           0.69140944401631    4.30359664918986    4.04028742068161
C           2.02340346130892    4.00954258653910    3.93180661995762
C           2.46063827055881    2.67348823399331    3.82898592468227
C           3.83669540595217    2.36405017260054    3.72999199841680
C           4.22536148782317    1.05492274497120    3.63940800654836
C           3.24791965220412    0.01694943299964    3.62132375283790
C           1.91347227418676    0.28722394811625    3.72156626120056
C           1.48931612925622    1.63055248561581    3.83430149789740
C           3.92249394515209   -1.28220792660123    3.46601616421060
O           3.43265249120828   -2.38834853013708    3.46093188198026
C           5.36327850384479   -0.95294105661095    3.25095939053661
C           5.55053138735591    0.44834032883875    3.56625112341640
C           6.70938397310821    1.05023161701294    3.98423027421663
C           7.93954517742459    0.38196043143140    4.13180770389593
N           8.95614660247315   -0.12619152317895    4.29785116149832
C           6.78499757209187    2.39165006698057    4.41524075265883
N           6.90247084768884    3.47282684731991    4.78161538471940
C           6.18723184326894   -1.91728068779924    2.75840881001744
C           7.44952169161693   -1.76513417781781    2.14156879404415
C           7.99125935185957   -0.64121068285644    1.53538478009188
C           9.26149327799137   -0.87915726168529    1.02703977908303
C           9.70003237604860   -2.20058869642203    1.24356985082257
S           8.53297122638461   -3.14762453383883    2.04105488767337
C          11.01350657981657   -2.32877972323474    0.72941449264621
C          11.40486104421469   -1.08909802468688    0.18601351852745
C          10.32161109272289   -0.13533657529570    0.36687108392851
C          10.30318302699579    1.18826102280741    0.04054981105222
C          11.39261429044241    1.83782047678135   -0.57837693758778
N          12.26911403899192    2.37615197370387   -1.08386691405432
C           9.17792639312090    1.99382888129623    0.31750865805424
N           8.25439149208099    2.63382397285225    0.54679249288113
C          12.69220566710544   -1.11377453167815   -0.34247123709974
C          13.28527305682143   -2.35762845004165   -0.19252833441318
S          12.23548603717105   -3.51231485580744    0.60728279467708
C          14.58971306396089   -2.74046037748665   -0.62071336773560
C          15.14097886067878   -3.98557883013593   -0.32678492577473
O          14.39327484726887   -4.85021145774334    0.44507246412910
C          14.86375042573339   -4.98613119440878    1.77927561530742
C          16.41847291151955   -4.39518882951960   -0.78720645450532
O          16.90032687989671   -5.64578799183218   -0.53048308850780
C          16.06431836199178   -6.76853021381298   -0.77368774138366
C          17.27309551695559   -3.53971023728726   -1.48815992768371
C          16.75509700354176   -2.24602882491028   -1.76228750514774
C          15.42553385009506   -1.86185960577578   -1.36147802158814
N          15.23229785115200   -0.63008335503293   -1.78769252200332
O          16.34863834460761   -0.26901195750161   -2.40660003036968
N          17.27546223466176   -1.21934388772040   -2.40523300214161
C          18.56534306062760   -3.94220889975287   -1.93343072468912
C          19.46721901269093   -3.17938240699741   -2.66123836151192
C          20.62824480199411   -3.88884818102059   -2.95236487158213
C          20.60950819955112   -5.19905255690835   -2.43546975559722
S          19.16527929466397   -5.55269716844111   -1.59566293499802
C          21.82206934082758   -5.83613794092869   -2.78366574621691
C          22.61774310457132   -4.92964243473134   -3.52222573790652
C          21.89012713849851   -3.67553847978451   -3.64826851614963
C          22.29577232068148   -2.53776601020096   -4.27820667097418
C          23.54613492491682   -2.41007051334120   -4.92332654413472
N          24.55100850609474   -2.26290809978734   -5.45424228847595
C          21.48885845864696   -1.37955016812564   -4.33411764436262
N          20.84840938388972   -0.43060989569936   -4.39172109190217
C          23.83507887262732   -5.46749788774363   -3.91588833422079
C          23.99202282840789   -6.78104105364938   -3.48823088274925
S          22.57871038699696   -7.34090428671474   -2.57461726300619
C          25.02244330794957   -7.73160216694213   -3.62671489430666
C          26.23352135315742   -7.68646835401933   -4.26163872955695
C          27.17615714769196   -8.79633401722307   -4.27657872376471
C          27.02553319157273  -10.02925208401786   -3.69324614832346
C          27.99246095640138  -11.05588075352922   -3.75422800796568
N          28.72480836755968  -11.94030666738063   -3.75930036635072
C          25.91599667874811  -10.48675526172892   -2.95215801951094
N          25.06335168076507  -10.95340583372488   -2.33855597408494
C          28.34771312362503   -8.37860288210000   -5.03849503577763
C          28.13899163637512   -7.04798931933934   -5.49585047050670
C          29.06665733075484   -6.38221766734022   -6.24365699461773
C          30.27621874694754   -7.03199544135838   -6.57523181015086
C          31.27266776881816   -6.39881871566191   -7.34353148362314
C          32.43695556928223   -7.04924029312699   -7.65093727202668
C          32.65535263192294   -8.36081734405446   -7.20337950518987
C          31.70723707150107   -9.00413944441783   -6.45537427407136
C          30.49641805972855   -8.36421490513350   -6.12051080390880
C          29.51479273533754   -9.02673826826856   -5.34838336699774
C          26.82580979246990   -6.56806273905565   -5.03791896007499
O          26.35051986065627   -5.47614631908036   -5.27004731020149
H          -0.60503301848496    1.17347723127893    3.95214851706629
H          -1.31088038655154    3.52633179913944    4.13411879613238
H           0.36652904876449    5.32997504391680    4.12160068121594
H           2.76324396040262    4.79633393331356    3.92881900680007
H           4.55075702910491    3.17252029019533    3.71530836223411
H           1.18913700237648   -0.51371692534603    3.71519890459496
H           5.78700554460925   -2.92601885160689    2.79711083502723
H           7.45700528356408    0.28672362731429    1.44202348332513
H          13.19779703921126   -0.29161990963300   -0.81520198613356
H          14.79733267907570   -4.03301523254718    2.31262554002501
H          15.89801872420086   -5.33825204882592    1.80826194215313
H          14.20900229177066   -5.71361354492615    2.25436826476700
H          16.74197858766791   -7.58882554462191   -1.00888711272119
H          15.39771695743346   -6.58842698602371   -1.61890318946352
H          15.47034330483514   -7.02993948493823    0.10334518614594
H          19.25601776921977   -2.16540914792090   -2.94741421825910
H          24.59057428393984   -4.95767492017724   -4.48768323388607
H          24.78862218129042   -8.66509771454991   -3.12847804087365
H          28.87769202396309   -5.37238811829226   -6.57633575668144
H          31.09848485117748   -5.38896320209486   -7.68495368055515
H          33.19593836079512   -6.55692379062465   -8.24038459357642
H          33.57951693762620   -8.85949264191097   -7.45450743785107
H          31.87075061672991  -10.01402953507829   -6.10865406489620
H          29.71588148834651  -10.03433055454546   -5.02205163891430
