99
 SCF done       -201.724909781975          0.000335963824
C          -0.20519856192255    2.89523059147710   -2.59681455613160
C          -0.71725131533639    3.42649603017231   -3.74943203975558
C           0.13609647247019    3.79246633566190   -4.80115928357420
C           1.48914902367906    3.62343424570969   -4.68616496697799
C           2.05083840490857    3.08269531950711   -3.51182604524027
C           3.44940217370167    2.92046696834067   -3.38216324632129
C           3.96049193493438    2.39970552445286   -2.22406149979637
C           3.08517376215132    2.00160157259532   -1.17107757852809
C           1.73168072294723    2.15359500906743   -1.26705245194103
C           1.18283309262426    2.70757139641582   -2.44528173069540
C           3.87724935915570    1.42970990811242   -0.07142066120461
O           3.49567222000244    1.03223964452029    1.00476640020792
C           5.28215044038380    1.38054906295612   -0.58267451925435
C           5.33712550416139    2.16437792866435   -1.80042509693143
C           6.43389578017792    2.79924288072305   -2.32284776251042
C           7.72094834175431    2.75028733786581   -1.75457743202641
N           8.77992373294308    2.76112512182898   -1.31038852434045
C           6.38302714409336    3.66082352172123   -3.43951310025938
N           6.39913842185023    4.37176755029492   -4.33978492105248
C           6.18145131389373    0.60476175044373    0.07880124621845
C           7.43413688587557    0.11694876133981   -0.36122731022765
C           7.91189871307331   -0.02539369148964   -1.65589317369497
C           9.20184553113646   -0.54033154357566   -1.68387511892505
C           9.71397730151859   -0.80650409054814   -0.39881707208596
S           8.59712892418141   -0.44388658884678    0.83184923043263
C          11.04453088424956   -1.27621701074972   -0.53245841132854
C          11.37469635910893   -1.29851700229179   -1.90580465489015
C          10.22784483132688   -0.83726391534939   -2.67047911479516
C          10.12758958694641   -0.67645019089286   -4.02081886949606
C          11.18359849337081   -0.98621786024557   -4.90433625190875
N          12.03285642614544   -1.24445897893974   -5.62924645799582
C           8.94417623741164   -0.18804750710481   -4.61491946173058
N           7.97500170194151    0.20661232723275   -5.08370813202591
C          12.68158289843123   -1.71884113607833   -2.13654204419059
C          13.32815822219870   -2.01636317311918   -0.94884249954534
S          12.32778097551907   -1.78132301200137    0.46763874787124
C          14.66702688115051   -2.44839312469454   -0.75260624081715
N          15.05848346493073   -2.69522729418744    0.48776063366113
N          16.26280972363514   -3.05759598480398    0.81189068683595
C          17.23891711622511   -3.20018565633275   -0.07194478577470
C          16.94883090793525   -2.98224654376424   -1.45312688195163
C          15.61007207346898   -2.60315407300374   -1.81383737572084
N          15.58033416723853   -2.47275863100035   -3.12316347078462
O          16.80875971713686   -2.75039029703804   -3.54865264765155
N          17.64981401908797   -3.05872413670428   -2.56379886870580
C          18.53741193557325   -3.55064685898262    0.39481898738499
C          18.88539548927838   -3.82518777575648    1.70845875181575
C          20.24254240780404   -4.09915533870439    1.82933622510034
C          20.92507200918138   -4.02213209479543    0.59579796928286
S          19.89430028744344   -3.63269366324791   -0.70710966590558
C          22.29758433075426   -4.28056892189279    0.82529032738506
C          22.48496362383332   -4.53341804346032    2.20261882086312
C          21.20075373734945   -4.42214937656201    2.87624423819505
C          20.94755960206052   -4.56823813937076    4.20709498554733
C          21.95780348020259   -4.83627352495923    5.15755083140754
N          22.75677195151064   -5.03092061561687    5.95567061032111
C          19.64718427515658   -4.44289200161198    4.74395410500964
N          18.59688707750102   -4.34867003243230    5.19290989653988
C          23.80653906548631   -4.80041662146179    2.53431594933877
C          24.64404586399796   -4.74657864530621    1.42732247461362
S          23.75373295700538   -4.34925955131455   -0.04786889533989
C          26.04478412957372   -4.86365607625027    1.29827881194686
C          26.97434990798072   -5.33252296897100    2.18290471215041
C          28.41137545315026   -5.26049628290870    1.97018089412162
C          29.06212868664528   -4.47677702749000    1.05241785746555
C          30.46537768726595   -4.42702868964755    0.91246626386570
N          31.59748192291281   -4.34355814571687    0.74200643701825
C          28.44522974131197   -3.58317171363289    0.15168785174905
N          28.02070973271331   -2.81910575911307   -0.59363960251745
C          29.05639781260762   -6.09292122209895    2.97687177660520
C          28.05293405683147   -6.61182973881910    3.84288842371033
C          28.35665470866853   -7.42067853043760    4.89996039787898
C          29.70739222839653   -7.75421040549669    5.14424320425164
C          30.08368543814637   -8.57916659980035    6.22229771177955
C          31.39877790232140   -8.89077218402628    6.43821770845227
C          32.39470395466649   -8.39059904097148    5.58603348619510
C          32.06266179875765   -7.58674608589020    4.52957514281790
C          30.71822193296889   -7.24513881723030    4.27811059334365
C          30.37188285204209   -6.41073385127656    3.19068535752352
C          26.72842943479316   -6.14230566116750    3.40680965390774
O          25.66567604734304   -6.42056749455558    3.91931095775306
H          -0.85729488914541    2.61105368990385   -1.78392736992170
H          -1.78230682842317    3.56711927608010   -3.85712469440684
H          -0.28437102180868    4.21024242862038   -5.70352200294976
H           2.15045804938265    3.90701009637389   -5.49153213146733
H           4.08300513374069    3.20158833979738   -4.20874522143396
H           1.08698773866346    1.85524789764696   -0.45376282400945
H           5.85983080110387    0.27632038246321    1.06297392044557
H           7.32412494954214    0.20399410099065   -2.52591960854298
H          13.16039995968179   -1.80845833681207   -3.09543749218595
H          18.15845746312269   -3.81157964238534    2.49957432573655
H          24.16264200148956   -5.02887971733373    3.52186817685965
H          26.41595280776179   -4.52624651516217    0.33718498977016
H          27.57508527023481   -7.79723429411056    5.54295843060978
H          29.31239035489777   -8.96078459130072    6.87508321420938
H          31.67883905148512   -9.52408116170976    7.26661125997081
H          33.42745542175068   -8.64519784212589    5.77118748181340
H          32.82608115808375   -7.19790968770120    3.87179793902675
H          31.15974904298631   -6.04745426833293    2.55026566905718
