107
 SCF done       -217.126938424959          0.000405957263
C          15.83469983496691   -9.34563945127234   16.05845021108859
C          15.08986014714843   -8.97037253240752   17.14355906896518
C          14.31975668388253   -7.79845875890450   17.10334503938765
C          14.30480458644061   -7.01792951362398   15.97947328809194
C          15.06169331636359   -7.37337848992703   14.84477915850932
C          15.05711972368762   -6.56500087670973   13.68468425732834
C          15.80645544085154   -6.94011312529612   12.60273303181487
C          16.56696289092060   -8.14560389726028   12.64053602224989
C          16.59571811256255   -8.94026538593866   13.75033492195506
C          15.84183439172890   -8.56548221475686   14.88538612139812
C          17.22843066459419   -8.34297314556137   11.34051966387089
O          17.99686246938357   -9.21685972026951   11.01188489424494
C          16.69794753026007   -7.25576904373294   10.46237873383145
C          16.01073085273858   -6.30082283548098   11.30696867834523
C          15.81673981104712   -4.96756574382314   11.05289330596885
C          16.22407873512054   -4.32426385842314    9.86878214244137
N          16.55912145097162   -3.75694917149263    8.92816997063136
C          15.27109791621892   -4.06307821990747   11.98829301849312
N          14.83886824419039   -3.28456076672680   12.71186070705418
C          16.85040436924338   -7.37702604070977    9.11538088172621
C          16.13842467121912   -6.72656249355069    8.08292565244153
C          14.90903448184578   -6.08463127786843    8.14720558984793
C          14.51226042720504   -5.58888082532559    6.91377485034514
C          15.44033583651825   -5.86017612380557    5.88529891558247
S          16.78568089707124   -6.73760105889159    6.44675033123628
C          14.95312419889548   -5.30333774278817    4.67910200330060
C          13.71769390169201   -4.67155814924314    4.94928886905203
C          13.40916578942734   -4.82374307514285    6.36209845667725
C          12.33282735870582   -4.33358984703707    7.04139119808736
C          11.31762371952649   -3.59041482165319    6.40336293035597
N          10.49054229566279   -2.99445638163911    5.87914378903820
C          12.17774780459960   -4.54982693769779    8.42711639308071
N          12.06312508922974   -4.73915895109612    9.55219375358169
C          13.14989642403107   -4.09582360073584    3.82208847853680
C          13.94282153426550   -4.29178604800600    2.69662719183328
S          15.41412527200935   -5.19120018165530    3.03798184517638
C          13.69343853128877   -3.88212666099678    1.37719797046087
C          14.52404720983113   -4.15150369910532    0.28302877859585
C          14.01122194813857   -3.63715651053758   -0.95284569871756
N          14.67001892529667   -3.80105788825650   -2.09897610028878
C          15.81009768656172   -4.45736138134163   -2.03972293652589
C          16.54986590471386   -4.63528578099508   -3.31435060104955
O          16.13972134193892   -4.20549973793582   -4.37175370021165
C          17.82036898846519   -5.37142536780871   -3.19928450587726
C          18.29349294313942   -5.86025928615053   -2.04806293990663
C          17.60144557526620   -5.72283477723815   -0.75516226587249
O          18.04634352694527   -6.18598587936350    0.27384145195050
C          16.31890479405179   -4.97750443390957   -0.80605094719447
N          15.67518030177725   -4.81962599806204    0.33197978264054
C          12.78888756311176   -2.97145981164365   -0.80603643074930
S          12.29363956207276   -2.98833134770983    0.86139075600293
C          12.06062479712355   -2.38483133797318   -1.85329209642336
C          10.86046465527504   -1.68610514925426   -1.77852330679242
C          10.43991140936778   -1.26317206944094   -3.03105306129703
C          11.32422788956970   -1.64918212283453   -4.06361915277806
S          12.67927670237764   -2.52143523990961   -3.49215660247411
C          10.80173799674917   -1.18349846508066   -5.29138320668165
C           9.59193933564473   -0.49430502904212   -5.04005915045282
C           9.32275589285582   -0.53366154457469   -3.61300005835908
C           8.24828315368228   -0.01573804199318   -2.95310667368836
C           7.18162223960240    0.63653768402145   -3.60970647175068
N           6.29039034881784    1.15017545317591   -4.11486392995524
C           8.11798534233628   -0.12021798705283   -1.55130419237582
N           8.01405555062158   -0.20191328404173   -0.41248881085493
C           9.00884030363517    0.02406697807763   -6.18727008533803
C           9.75249661507624   -0.26171631248028   -7.32606123131542
S          11.19403422844259   -1.21394066185824   -6.94445159659904
C           9.52399877913593    0.01411641915360   -8.69035570957014
C           8.66782487436288    0.90911531778614   -9.26912919466343
C           8.44033383555768    1.01497751416723  -10.70074906182763
C           8.76915987311069    0.08169102206523  -11.65022043678504
C           8.50366753885074    0.23168047365169  -13.02764382185686
N           8.32429375015140    0.29444068170997  -14.15979284865489
C           9.37440472220554   -1.16684485668589  -11.39563615652760
N           9.84488144699016   -2.20695612711778  -11.26796289691576
C           7.71048546339412    2.25147351066471  -10.94929058909182
C           7.42390069247612    2.86414695195730   -9.69694486295792
C           6.73456092259731    4.03883960870818   -9.60617991084218
C           6.29129258275874    4.66859566303883  -10.79036783674856
C           5.57203341618893    5.87936485541302  -10.76082471807899
C           5.15596004473875    6.47374713362592  -11.92129218984782
C           5.44032559579537    5.88266247203787  -13.16139475338932
C           6.13672030294042    4.70636894794161  -13.22468956123482
C           6.58008054949645    4.06660226991985  -12.04933709432299
C           7.29647136300488    2.84910649352648  -12.11047411999308
C           7.97795737969973    2.04742727801723   -8.60539733967111
O           7.92452873467594    2.30455851544984   -7.42171389445908
H          16.42899741232286  -10.24730767821501   16.08357748932293
H          15.08958904294299   -9.57475527515256   18.03826497929376
H          13.73819820369708   -7.51668887503039   17.96824397777555
H          13.71605651817030   -6.11319469863883   15.94447350263293
H          14.44806574082767   -5.67462566918948   13.67453526352776
H          17.18451873877693   -9.84540353733944   13.76251135629624
H          17.57098776857265   -8.12708931685000    8.80332033657416
H          14.32294293134079   -6.02872719445069    9.04620627236356
H          12.21573532372235   -3.56397145106676    3.78987344387881
H          18.36089943527397   -5.49642616766781   -4.12782767257530
H          19.23193515518661   -6.39669976816923   -2.00841119043834
H          10.34823283205686   -1.51135916125326   -0.84933375749412
H           8.09456194110333    0.58701385467453   -6.21429602015268
H          10.14694553295766   -0.56849556962838   -9.35955958561437
H           6.52844093561217    4.47911287362222   -8.64193492541535
H           5.35613322761131    6.32911792770646   -9.80279448495429
H           4.60576269025568    7.40223979827522  -11.89004695647351
H           5.10418884882077    6.36424771432503  -14.06737381506362
H           6.35649844826521    4.24687331134699  -14.17719163829633
H           7.50413926619813    2.42294073670750  -13.07905592952559
