105
 SCF done       -208.237161338047          0.000351860614
C          -0.90480838761997    1.77741809117206   -2.57290870941718
C          -1.60975780419076    1.62895962665258   -3.73637280690042
C          -0.94010852902351    1.36973877308246   -4.94148812381496
C           0.42369177023414    1.26167365755614   -4.96645905159182
C           1.18124127929963    1.40827390062880   -3.78661823990269
C           2.59111755390284    1.30033950077569   -3.80736296509144
C           3.29496864401752    1.44386850725388   -2.64176261044071
C           2.60543337988130    1.69362908670770   -1.41962309366954
C           1.24649825425981    1.81204820840265   -1.37161588202800
C           0.49993064185934    1.67099071874000   -2.56310493597547
C           3.58082397701136    1.76645186144864   -0.31841009862131
O           3.37374414720168    2.01897539091109    0.84535271303048
C           4.89679985024041    1.40034527781401   -0.93087129474915
C           4.72685362559161    1.40018997747728   -2.36843645913086
C           5.72140469679989    1.52828319552216   -3.30032157997899
C           7.07806964415422    1.71022208787543   -2.96638027773793
N           8.18848686403769    1.88253847671106   -2.73388163845797
C           5.50092036333028    1.54714200179057   -4.69184726362195
N           5.38132629126157    1.53722992275278   -5.83378303148886
C           5.91265786668947    1.07281246231709   -0.09765653254897
C           7.15949043363023    0.38168379328982   -0.30083799052628
C           8.19923344201480    0.65232888736880    0.60364268275232
F           7.95133473697173    1.61856580171924    1.51952325123019
C           9.42933202985691    0.01307153407482    0.57064318006542
O          10.50954335886864    0.24683344063074    1.34236093923559
C          10.45959951002749    1.20764421862620    2.37773091745945
C           9.58947585566846   -0.99362991416756   -0.40141404835263
C           8.56629098440146   -1.28811706342585   -1.28842649142916
C           7.34316975003268   -0.61932023027710   -1.28177137426203
O           6.28577004926570   -0.86248547264641   -2.08688268281258
C           6.34639456554883   -1.85451565284551   -3.09333822223411
F           8.77984683146753   -2.31405256208679   -2.14461007456895
C          10.84699581518447   -1.74836874893057   -0.44851456614158
C          11.64315250020292   -1.78358446994774   -1.60018241972503
C          12.86759583450291   -2.53821381890848   -1.64478184353601
N          13.64001536163214   -2.50657954905008   -2.75952260236193
C          13.21950654501271   -1.81493192713336   -3.77318532778051
C          12.00165713295184   -1.08651163875610   -3.73600576702496
N          11.25086703843599   -1.06214861732183   -2.67928829886615
C          13.30158426903759   -3.28867897613208   -0.54487576494142
C          12.51070212083908   -3.25120018650666    0.60503824483208
C          11.28928334858859   -2.47636520730210    0.65685929106406
N          10.66826577420113   -2.61064605038742    1.83754068607574
S          11.53447593212638   -3.58395733446936    2.76224157525071
N          12.72048721098826   -3.91768634263923    1.74919979162276
C          14.52809433198534   -4.09336383338031   -0.59043971612015
C          15.52068936175703   -3.91293346057485    0.35020236168726
F          15.36721035629424   -2.96621965728521    1.28955939006007
C          16.70941002276628   -4.66164742720986    0.37852075254739
O          17.48147659144798   -4.44361732261122    1.45834217161753
C          18.45826891304346   -5.35949285587534    1.87769751424622
C          16.89688477401375   -5.60024202793130   -0.64730244883137
C          15.84706344257996   -5.82172741704452   -1.56182597667580
C          14.66729070047846   -5.10007946777527   -1.57390611419648
O          13.59753924763677   -5.27316835109059   -2.38061581642854
C          13.67653723782973   -6.12931244627304   -3.50112565928751
F          16.08483685367182   -6.77747723229303   -2.49899222838731
C          18.10371038340228   -6.37346601268988   -0.86238784614495
C          19.35279641501898   -5.85482026934858   -0.93143681350321
C          20.58959259742560   -6.59220626383867   -1.13110351285044
C          20.77340446709874   -7.92362181623101   -0.87305415179365
C          21.99753079232119   -8.60082591504885   -1.05149991373730
N          22.96756139940142   -9.19957907047619   -1.18563360217330
C          19.77603393321918   -8.76563169116297   -0.33692753948254
N          19.01830000966741   -9.48417906605122    0.14000468838826
C          21.61342743197110   -5.63751851761329   -1.52766940343003
C          21.06245994631697   -4.32450852253955   -1.46413485243649
C          21.80552208298172   -3.21845208507762   -1.76086896516666
C          23.15731696518730   -3.37747729595002   -2.14044555596718
C          23.97515261622605   -2.27215620212377   -2.44690258837805
C          25.28147859786176   -2.44923403705762   -2.81464541267457
C          25.82754434213403   -3.73926985725418   -2.89224349121114
C          25.06049572993454   -4.83417720361445   -2.60105058853148
C          23.71177703728133   -4.68822096307643   -2.21691090948619
C          22.91826904822613   -5.81550624124819   -1.90629640381812
C          19.64900848347348   -4.39617679611943   -1.04957214911194
O          18.88034070423680   -3.47447809824583   -0.89907312751332
H          -1.41454021737077    1.97711981819012   -1.64169753974452
H          -2.68647004442813    1.70974585891240   -3.73450001410563
H          -1.51094039388611    1.25626093429252   -5.85097471456262
H           0.94339705587216    1.06513491294590   -5.89281273156962
H           3.08016706656216    1.09495856086917   -4.74696377787932
H           0.74557596174215    2.00849008125877   -0.43530924518881
H           5.71995971730710    1.34264349109936    0.93860355735050
H           9.70298766491098    0.95630414699825    3.12434683754977
H          10.27178696756054    2.21104181197629    1.98891096431994
H          11.44593430965119    1.17744305338006    2.83807107193137
H           7.14544027548711   -1.65243189096728   -3.80983771433228
H           5.38312247664847   -1.80124086929157   -3.60007857098882
H           6.47796221857097   -2.85246798108132   -2.67039588598213
H          13.85330196220859   -1.80060682759035   -4.65023335899159
H          11.66689958093885   -0.50557211565288   -4.58489731133735
H          19.42915338517903   -5.15904803720227    1.41108450965723
H          18.16841171724706   -6.39335885188211    1.66680741942693
H          18.54948512812908   -5.21569239818249    2.95518726571893
H          13.80060679317817   -7.17430197546478   -3.20653632670371
H          14.48863370102689   -5.83950112031320   -4.17150052426715
H          12.72397513615017   -6.01085118947456   -4.01539232543767
H          17.95391181316543   -7.41964082630354   -1.10322770500703
H          21.36763757977691   -2.23305887421412   -1.70223540832416
H          23.54957536004341   -1.28126353086395   -2.38576042134838
H          25.90116945452204   -1.59643241587301   -3.04806297206104
H          26.85996836898646   -3.86110597742958   -3.18364986751737
H          25.47645093223629   -5.82940739485223   -2.65718630848735
H          23.36076665001967   -6.79648760709173   -1.98039219659078
