103
 SCF done       -205.483442254559          0.000616959759
C           3.15222846667849    1.99659482716165   -8.30186667190439
C           1.90057427411422    1.47594829260485   -8.49025848003617
C           1.46927083289290    0.37681401693772   -7.73298013071492
C           2.29448779722254   -0.18590972321699   -6.79761900721985
C           3.58986747995277    0.32444860394279   -6.57841388159550
C           4.44910392120674   -0.25804110171809   -5.61797153566019
C           5.70085148723343    0.26281897237381   -5.43232056608396
C           6.12649424514877    1.39085339254596   -6.19330553453220
C           5.32081651237555    1.96821670825552   -7.13152310709422
C           4.02688697191312    1.44167374713877   -7.34719808551521
C           7.48631853911821    1.77460916719677   -5.77456454504712
O           8.19287028555850    2.64409066243348   -6.22943398820317
C           7.79669493449522    0.89813405176518   -4.60707764333633
C           6.79215549098856   -0.13941669555638   -4.54999633953704
C           6.93376395358498   -1.38321537373250   -3.98799493694631
C           8.10891737153791   -1.83178195552917   -3.35398420673624
N           9.05309949288742   -2.26146802121545   -2.86180743807539
C           5.94951764040760   -2.38966946915141   -4.05463876056360
N           5.17231852587462   -3.23467318837623   -4.05915973555416
C           8.83589132320462    1.23144790363542   -3.79010411612470
C           9.07630486169822    0.83325229399458   -2.45753955757716
C           8.19012448694940    0.31951209590608   -1.52047324636153
C           8.78574874696837    0.06869964015218   -0.28966172431065
C          10.14799262849829    0.40977786632218   -0.26437990569492
S          10.66900854995036    1.04479360311705   -1.77578765952550
C          10.86261037639441    0.26755742030622    0.93689907805395
C          10.23083615357369   -0.35194612583274    2.01822174554781
C           8.87671398011979   -0.96652729232249    1.83790285019479
O           8.11292117801919   -0.39016278133328    0.78118377568268
C          11.01537388416969   -0.36074401132938    3.15625655338631
C          12.25710032488947    0.24261060556294    2.96942126811507
S          12.44715961142823    0.83394998983986    1.33914302559258
C          13.28378029867049    0.40168316444448    3.92813402461192
C          14.50774745435063    1.02244523915561    3.58149991911733
C          15.57920027363939    1.19582022400012    4.52555885272846
N          16.71397864870729    1.78454532302667    4.13435184173961
C          16.84362434091807    2.20159401147572    2.89715226917195
C          15.77586419422085    2.03277713062000    1.95928759559333
N          14.65524075216294    1.45532664979162    2.32682246114940
C          15.91191616080660    2.48992815490534    0.62549757685983
N          16.04842427629920    2.87219408083926   -0.44540838187802
C          18.05033107502564    2.82904807032578    2.49909290030845
N          19.00980647875396    3.34283780707171    2.14313994947044
C          15.48102480312091    0.76885371112330    5.86960744855703
C          14.25455733334690    0.15610184227679    6.22608157772964
C          13.18003039854825   -0.02846669024283    5.27403247698722
N          12.13015124234246   -0.63007195531589    5.83095295779014
S          12.44744837389775   -0.93341747034671    7.37652192939048
N          13.93030616958327   -0.31994116065122    7.42674906175716
C          16.55882954605733    0.94992896305771    6.77075845693888
C          16.58970984285843    0.61419505075102    8.11743103812551
C          17.79960017345734    0.92650125175924    8.72567163427572
C          18.72418034174281    1.48726550353388    7.83032608114109
S          18.05915027560915    1.66210167909035    6.24016544325793
C          20.02665723144347    1.74786825800573    8.28608778600763
C          20.31035813109141    1.59471743604392    9.64903415716418
C          19.19733230548809    1.29511868402217   10.60631169388517
O          18.07234691610975    0.65096357666203   10.01460079327666
C          21.64065710464889    1.80533067976882    9.95431483073965
C          22.41702459934809    2.12618403053118    8.84325339677501
S          21.43001735393615    2.16288196435406    7.38516448190118
C          23.78457314111156    2.40537146380665    8.68134856349599
C          24.82677401348699    2.43195944929311    9.57443478540904
C          26.19726681268852    2.73783364598583    9.19156638018041
C          26.65728375764421    3.11909253699912    7.95606701634502
C          28.01045322691652    3.40135596966560    7.67148367627307
N          29.08896061682273    3.64548913387809    7.36158590754198
C          25.89275049145829    3.30736363436377    6.78530649568925
N          25.36421813447905    3.49362170516783    5.78201598187358
C          27.03947885821079    2.59121753944368   10.37466417049768
C          26.21009049486114    2.24060325062408   11.47482354870725
C          26.71152784340548    2.03896708084469   12.72818680011080
C          28.10032872233175    2.17880646701800   12.94388229057193
C          28.67847081715437    1.98321834354002   14.21335887294985
C          30.02753442809153    2.12244133700233   14.39611713716385
C          30.85664370629247    2.46334210906709   13.31720363668700
C          30.32607409170453    2.66034591693843   12.07132904502282
C          28.94087508059947    2.52540627262532   11.84746547562420
C          28.38959246686034    2.72956565214901   10.56122057842492
C          24.81166729302323    2.14198814542867   11.02769414829421
O          23.86632782798144    1.87280677491134   11.74402777231390
H           3.48961108002200    2.84301084026235   -8.88196211017991
H           1.23621320913808    1.90836637147164   -9.22333974765497
H           0.47947519088616   -0.02293910585826   -7.89503391398310
H           1.96831685996216   -1.03469202819599   -6.21460481846264
H           4.08959211146226   -1.09731302568512   -5.04312242353710
H           5.66545892324409    2.81670750152157   -7.70362730504872
H           9.52968920596569    1.95626040121795   -4.20495879422219
H           7.14304677668447    0.16687168022361   -1.70490976337316
H           8.26686502311310   -0.85219973566766    2.73811278973540
H           8.99134206932996   -2.04408970232073    1.63120234592216
H          10.72842122302112   -0.78439343755552    4.10055618955799
H          15.75926273107575    0.15908065391625    8.62204863416770
H          18.85284983792630    2.23594724812884   11.06881246518790
H          19.53639226604018    0.62818700911079   11.40364209242305
H          22.05916539453123    1.73534844055366   10.94154807380101
H          24.04372676622833    2.62610190712434    7.65282449536286
H          26.05543777241267    1.77447765018025   13.54426095416097
H          28.03449597172190    1.72109079021213   15.04017605600176
H          30.46294186259859    1.97103800933263   15.37260269870922
H          31.91904483940431    2.56895337325781   13.47821738306343
H          30.96062731433355    2.92305618049141   11.23765642309399
H          29.05688132069607    2.99005921781986    9.75580424538544
