103
 SCF done       -202.966029033344          0.000716620635
C          20.70190013361369   11.41084917871104   -4.61485000441378
C          21.78481813400056   10.72237636521929   -5.09041624016849
C          21.71458304634585    9.33405635033991   -5.27923857561710
C          20.56306429801148    8.65378498419557   -4.99045926440890
C          19.42761528221975    9.33190504760969   -4.50281973753548
C          18.22997147250477    8.63611483435095   -4.21914252098358
C          17.14542274731075    9.32950378970672   -3.75552647665104
C          17.23049722877050   10.73659217640305   -3.53928717458305
C          18.37242679728598   11.43357695740291   -3.81160302517489
C          19.50051486329244   10.74177796986028   -4.30816114696875
C          15.94907697405180   11.22564154201946   -2.99908241899271
O          15.62706204686836   12.36376797308377   -2.74578059746113
C          15.13402458288008    9.99823745616658   -2.76389036519477
C          15.79146552936529    8.89423800871624   -3.43444208019791
C          15.18152402269783    7.77795378743859   -3.94348698794427
C          13.79486993761152    7.53889965039332   -3.85310596605201
N          12.66484253959795    7.33537588982776   -3.84660060799096
C          15.85080665337450    6.80052091995583   -4.70728288436866
N          16.34999449127668    5.97538060423010   -5.32968112554023
C          14.04280729562238   10.05409129071231   -1.95524173505713
C          13.38251440443959    8.98864388843434   -1.29457071635299
C          12.07917327116613    8.99371881528725   -0.82804579975282
C          11.71557235725463    7.79548035009609   -0.21195512704223
C          12.76665729175484    6.87418252206830   -0.16550123255289
S          14.19867684812068    7.49813019472402   -0.88922203789401
C          12.52184604510082    5.57188581290788    0.30558700213682
C          11.25958255982261    5.27522856506940    0.82130506117445
C          10.26733801214973    6.37778914597077    1.04122840019881
O          10.47392296971845    7.53690368098576    0.23594426894376
C          11.11121670164747    3.92904257615821    1.11159127489809
C          12.25903349173782    3.19197277922697    0.83634021290483
S          13.54914619137467    4.18887891780778    0.20884629187566
C          12.48134849719668    1.81430141200798    0.95755773435678
C          13.70310500487499    1.18768197555962    0.67829849591343
C          13.65380922629514   -0.23726808151516    0.81462927981494
N          14.72310752341948   -0.99273119428178    0.56909713646251
C          15.82403233707230   -0.36581808504095    0.20865372609076
C          17.01571687975406   -1.20572039249098   -0.06909671641859
O          16.99753724714466   -2.41597777237468    0.01325004213118
C          18.22562082456953   -0.46024631609351   -0.45522025397087
C          18.27504804582187    0.87182690869757   -0.56199286467541
C          17.12622750129086    1.75595961223679   -0.30371651039736
O          17.20217296580117    2.96388194423191   -0.39890026406933
C          15.87640818423744    1.06020616590111    0.08575254197076
N          14.81937848149152    1.81339840714829    0.31583711368098
C          12.39384289824325   -0.71152620255207    1.19611962833216
S          11.29175829818584    0.62389749844889    1.40314672903898
C          12.05490730644585   -2.06565786986600    1.32808182293686
C          10.81974151659095   -2.62922414258756    1.61891640855978
C          10.84875216068183   -4.01948639488002    1.57788898638004
C          12.12351700585263   -4.52242519263538    1.27981312102998
S          13.28381941949485   -3.26628254888815    1.02730682665848
C          12.30285313594149   -5.91629623981357    1.21874786922158
C          11.18402455358277   -6.74941016876818    1.29537965057288
C           9.81275668107485   -6.15111702975730    1.39686985710091
O           9.78318827969506   -4.79795500220996    1.84851991000751
C          11.50143527565690   -8.09251438064395    1.18885475854106
C          12.86479576409216   -8.32248669985471    1.03406106685732
S          13.76053229206128   -6.80991654609582    1.05810533355053
C          13.61502690617150   -9.50312903538640    0.88842896152744
C          13.22048927039448  -10.77458769692368    0.56363204734577
C          14.14296414422585  -11.89155022017326    0.45817281365563
C          15.37597226031570  -11.98903879144963    1.05010886073134
C          16.21838051615854  -13.11298405489052    0.92765538988329
N          16.94725258044477  -13.99792915860412    0.86372028334130
C          15.94432516173243  -11.02061708628617    1.90416788610243
N          16.45379487866971  -10.29537799009210    2.63478760590009
C          13.48883699649939  -12.94138170251206   -0.31222685929795
C          12.14288929804597  -12.54529276705055   -0.55030827983756
C          11.27399706311940  -13.32930509214852   -1.25232688728401
C          11.72534007843008  -14.56476480953208   -1.76919136570871
C          10.87872449548059  -15.41102354255420   -2.51161331232955
C          11.34038420310128  -16.59791295415651   -3.01290607648218
C          12.66833795442087  -16.99145372412950   -2.79127454838634
C          13.51593974480279  -16.19317728705680   -2.07230430153759
C          13.07401861648186  -14.96389016536745   -1.54289268092080
C          13.94809984167640  -14.13421036051153   -0.80276577588546
C          11.90370779934544  -11.21895416988325    0.04786538055434
O          10.83982558733750  -10.63318923274675    0.07232999949721
H          20.75061609483098   12.47988346978874   -4.46755889797451
H          22.70119067832063   11.24361081139148   -5.32381748472552
H          22.57800011139567    8.80608508908006   -5.65556712243073
H          20.50235108632685    7.58540938928914   -5.13679397934689
H          18.20118873892659    7.56746410003608   -4.36466163158900
H          18.41598024374993   12.50072267310118   -3.65199672109284
H          13.66848805873578   11.05052607062774   -1.74073582687575
H          11.40226025197324    9.81401820907941   -0.97702629778324
H          10.29986394168366    6.68961083448083    2.09944940453313
H           9.25073108513738    6.04047924565382    0.81747861480851
H          10.21783323606412    3.47924939934323    1.50642540684756
H          19.09486410708411   -1.07298596227117   -0.65292407732479
H          19.18595061049752    1.37947671608017   -0.84945529191890
H           9.94226975884790   -2.04955247494090    1.83778783299540
H           9.19510203579939   -6.71114297186458    2.10509445671266
H           9.32470371139163   -6.19548688050730    0.40874270537858
H          10.78176514513193   -8.88921537431906    1.20563015785562
H          14.68264432276517   -9.34934201735667    1.00124439199823
H          10.25597945226292  -13.00861400380859   -1.41728244212255
H           9.85703230433064  -15.10260723777902   -2.67939268931078
H          10.68516837870828  -17.23935190963137   -3.58323455979360
H          13.01701207871153  -17.93077587931754   -3.19373102692121
H          14.53913389951961  -16.49224655788715   -1.89793773866629
H          14.96531774300102  -14.45996058979303   -0.65346641941142
