97
 SCF done       -183.384190725537          0.000363617554
C           0.88501461459714    3.38663000246393    4.53523445757039
C           0.73783368678529    3.54245929752980    5.88714919842343
C           1.73963259078431    3.10089367025595    6.76373719475729
C           2.87376423231792    2.50964229835458    6.27709741125800
C           3.05692340162967    2.33185145452071    4.89094518289852
C           4.22285443925562    1.71271269156820    4.38351611651283
C           4.36788366869876    1.55811577555186    3.03122786990971
C           3.35386871135748    2.02709626697369    2.14546698173419
C           2.21483835400074    2.61811056431534    2.60777337992394
C           2.03997692271126    2.78308015448704    4.00128105867580
C           3.77232342963491    1.77435033389227    0.75295841011203
O           3.15200413370605    1.99616682415941   -0.26243143712177
C           5.15642893643280    1.23386435957772    0.85041589682087
C           5.42435684505992    0.94005941929366    2.23821686480731
C           6.39377631868848    0.09492308918834    2.72180187893353
C           7.17989718460684   -0.74864472593268    1.91282606910163
N           7.79351074200660   -1.52257726261942    1.32666163347836
C           6.64580915344240   -0.11950861462003    4.08974546626991
N           6.93248648676620   -0.30381335977385    5.18713599459960
C           5.93411615046197    1.19152059459687   -0.26830457327861
C           7.33961458781086    0.98301199797843   -0.41157179675619
C           7.79330446286789    0.36945274957024   -1.57677955901001
C           9.08423580638074   -0.13260681610301   -1.68741389287635
C           9.99882574549370    0.00089747033304   -0.65367178197210
C           9.68024091478967    0.86950171848264    0.42394862229244
C          10.60052713955698    1.42866155873180    1.31545183837709
Si          9.54778769697334    1.99812951241026    2.67622451460390
C           8.14743864724384    2.31973537100790    1.56818029019387
C           8.31584653144945    1.37693129214522    0.55466962900283
C          11.22251473180797   -0.77806269540148   -0.63828900595774
C          12.01516070880172   -0.99638594919835   -1.77937158629439
C          13.15873625232262   -1.88033456038038   -1.75603935756680
N          13.92752656146650   -2.00791154632017   -2.85411978265202
C          13.60357072815633   -1.35968234897210   -3.94138232353696
C          12.44865204488532   -0.50305984294834   -3.97366858388453
N          11.70868451394794   -0.33325306760659   -2.91039129838814
C          12.11650845265055    0.18670818657695   -5.16657654868305
N          11.87349901030057    0.72001089367170   -6.15085605572416
C          14.41889491516944   -1.48736000287940   -5.09358559550867
N          15.05123168458807   -1.56834548809794   -6.04540339716532
C          13.52885498240525   -2.59652307502769   -0.60222335301945
C          12.73388496674159   -2.38290204204660    0.53507615268332
C          11.61003411579830   -1.47119538150360    0.52245254551129
N          10.97302250241500   -1.46260716934164    1.69920471048365
S          11.68057056078686   -2.50043426433623    2.68728386573338
N          12.84351879971120   -3.00750273912379    1.71409276789259
C          14.62023293405467   -3.55714582532121   -0.64353700473294
C          14.63956157654460   -4.50021854508188   -1.65933405968135
C          15.62359085811163   -5.47382605672789   -1.74779582572685
C          16.67782895249078   -5.54794732194467   -0.84101405235136
C          16.67802904531975   -4.62994046117496    0.26866170073656
C          17.54986461464870   -4.65362392113292    1.36136464240233
Si         17.43410811350249   -2.97054505104321    2.01187392179215
C          15.72719786702574   -2.74502759102526    1.45551667568096
C          15.63696685451958   -3.59816400354577    0.34910575317348
C          17.78268305920028   -6.43677724178537   -0.97591191757272
C          18.08217272333993   -7.48844744169585   -1.80132989928713
C          19.38240361181155   -8.14870757583748   -1.76515111271777
C          20.41489123666940   -7.92577786493970   -0.88644752020880
C          21.64648693650012   -8.61367258936635   -0.92061762049122
N          22.67523757677384   -9.12240300030908   -0.87690536859624
C          20.43215313254507   -7.02567707961840    0.19742970418531
N          20.54951205691026   -6.33964642965110    1.11414768345378
C          19.41555257940679   -9.14635491132424   -2.82780985481370
C          18.14375003812748   -9.16674604829313   -3.46213517337274
C          17.86187011930211  -10.01053968055549   -4.49692379464282
C          18.86626562173730  -10.88910232021945   -4.96086208723801
C          18.63895697574543  -11.78047752717661   -6.02745942051213
C          19.62884322311912  -12.62107349006407   -6.45945053012992
C          20.88910472458234  -12.60691520745070   -5.84344541636051
C          21.14235615909460  -11.75254884895638   -4.80515096921776
C          20.14574972783628  -10.87319321342031   -4.33500315212803
C          20.40437770274574   -9.98990355880353   -3.26188999621280
C          17.26055394727499   -8.17059239361414   -2.83206075720317
O          16.09178133785671   -7.99830545617828   -3.11496095732742
H           0.11682079197917    3.72487778952688    3.85526559061189
H          -0.15091922051093    4.00668215624926    6.28772437371551
H           1.60814776265460    3.23076135542211    7.82757550184458
H           3.64666988603002    2.16502577345101    6.94856258066879
H           4.97862454659365    1.38246768873082    5.07914623938003
H           1.45434440762029    2.95720995587146    1.92020117246111
H           5.38214060383842    1.33179144895598   -1.19412080046564
H           7.08678651187199    0.16962467195614   -2.36954640754219
H           9.34567409111176   -0.71471549247341   -2.55670860728656
H          11.62116475723280    1.08136753978315    1.32359950311105
H           7.17856190259137    2.75084662384427    1.76541238334512
H          13.84304587795472   -4.50397809004753   -2.38749542146462
H          15.55984405757318   -6.19482135697457   -2.54511445715144
H          18.38879042787380   -5.32695305181070    1.42316275720189
H          15.08673049130855   -1.88320291488096    1.53425971997732
H          18.58538945000390   -6.19296013782862   -0.29488567049762
H          16.88511252676258  -10.00489707100217   -4.95761041148150
H          17.66656206823849  -11.78671126508871   -6.49799815044319
H          19.44639412285506  -13.30123140037501   -7.27806279657473
H          21.65901150748147  -13.27682837557360   -6.19614395746405
H          22.11099426584327  -11.73808393270409   -4.32716490540549
H          21.38484878859330  -10.00416785413434   -2.81404790082841
