95
 SCF done       -186.844639751794          0.000800701058
C           2.40373379308148    1.05656256046524  -11.31314118390843
C           1.22369936735604    1.73777897989132  -11.44201242023554
C           0.55813157449950    2.22154525894004  -10.30609813998680
C           1.08167807458025    2.01827141524402   -9.05824642271964
C           2.29456430956557    1.32053536880008   -8.88903732187253
C           2.83727737350726    1.10265376904601   -7.60107558427674
C           4.01877840971934    0.42454968989080   -7.47551642839714
C           4.69703531986710   -0.05209699887654   -8.63560398643371
C           4.19170463319033    0.13512688041956   -9.88926840971393
C           2.97037615747731    0.83036096226212  -10.04350207977652
C           5.95445091843640   -0.70804469596079   -8.22931478943291
O           6.76130272509137   -1.27406563697510   -8.92998094022720
C           6.05803826586614   -0.46719097588323   -6.76108153884009
C           4.78881411325339    0.03733292106068   -6.29854919344995
C           4.30437545049501   -0.03193012789291   -5.01716660975433
C           4.97582085206852   -0.68535680069382   -3.96577539718826
N           5.47141815779400   -1.22962713300026   -3.08439460119431
C           3.06904748558461    0.50335437833224   -4.60895877345869
N           2.09706425370141    0.95997412017359   -4.20103462814029
C           7.27134999484599   -0.60827337139067   -6.15029421996147
C           7.71788594743032   -0.06395581197828   -4.93258147771425
C           7.19615871659884    0.97860425233989   -4.16358624262019
C           7.95728651927046    1.24379058677926   -2.99849750881692
S           7.24124745436840    2.52835409187773   -2.09804519841165
C           5.99140428473632    2.62573571967356   -3.36578427829145
N           6.12398437058564    1.79449547759106   -4.32950492336003
C           4.88303572131633    3.59197870900702   -3.24417735879748
C           9.08258465117111    0.44671751855904   -2.86159290893692
S           9.19809527000779   -0.65615405151785   -4.20896154325357
C          10.05913870727587    0.44960638421001   -1.85862480431816
C          11.20554363916049   -0.35943494774475   -1.86551061275653
C          12.06193182743957   -0.13391734323701   -0.73897435577127
N          13.17629986632400   -0.84413599064195   -0.56845569080957
C          13.45896675613137   -1.73575243271552   -1.49566799600658
C          14.67806632826752   -2.56214478698594   -1.29195180681454
O          15.36384259238254   -2.49462312986519   -0.29610908549760
C          14.99154365044788   -3.49215682620884   -2.39369339609012
C          14.23112517041628   -3.64194622458491   -3.48216365738319
C          12.98742060872097   -2.88799591967454   -3.71646757929443
O          12.31057732776855   -3.04474852662823   -4.70987785587519
C          12.63048336095416   -1.92019865055983   -2.64822759337202
N          11.51413218188410   -1.24026010924968   -2.81325153968650
C          11.56969265818204    0.85896641674783    0.12218344009204
S          10.04751074546118    1.47232906036184   -0.45567107420670
C          12.17436291105935    1.33617671565863    1.28871190843867
C          11.61612424628605    2.24283514162015    2.19162172797657
C          12.48375884801420    2.52602550756609    3.26377242752874
S          11.72561508342363    3.62967291226899    4.35016935855720
C          10.30344087516339    3.61436502766046    3.26594520935595
N          10.41395679182499    2.87064031198736    2.23104520139770
C           9.11719863242383    4.42444338244272    3.60461658220453
C          13.72153025589174    1.87860992662607    3.20646888133028
S          13.78750487736636    0.87147191742235    1.76217373179957
C          14.69607173112939    2.05029044306962    4.19708855505729
C          15.96181634520238    1.52681187125629    4.27417145733961
C          16.92385748798655    1.73347452317916    5.33659885063905
C          16.73675089944918    2.43456711445103    6.50172816332751
C          17.72429681672816    2.59027580478839    7.49628216360749
N          18.48218884897258    2.76273558478052    8.34164395117412
C          15.54941142128729    3.09207897042332    6.88314739645029
N          14.61896309190152    3.64491809431883    7.26898708525728
C          18.15186067989961    1.03959893480122    4.95568057847918
C          17.94494368363252    0.40757874956910    3.69543861074549
C          18.91759579117570   -0.32543068702751    3.08056463111553
C          20.17565149851563   -0.45928832742825    3.71026835123924
C          21.22114084812320   -1.20022861057037    3.12596898581170
C          22.43351399626554   -1.31232046067035    3.75154027109388
C          22.65195805520895   -0.68893904174478    4.98875996752443
C          21.65594449228608    0.03715570742853    5.58385873190749
C          20.39573207425666    0.17338996474444    4.96763850892292
C          19.36433738913998    0.92294030106222    5.58113596248797
C          16.57898725851242    0.69074429328479    3.23645371222405
O          16.06775530351200    0.32592965779028    2.19280007387005
H           2.92090606365229    0.68167780594619  -12.18426876518361
H           0.79698251954562    1.90721010756207  -12.41926071952367
H          -0.37245640821360    2.75628714207844  -10.42459789781596
H           0.57148616545876    2.38709414300976   -8.18044482369817
H           2.30962306554606    1.48884518470291   -6.74280398792723
H           4.71678104473965   -0.24024878052350  -10.75504097889387
H           8.01350870787833   -1.15958074808906   -6.71950952403989
H           4.03953763962018    3.11604916805010   -2.74088045132323
H           4.55136983686054    3.89734589280234   -4.23387696450477
H           5.18759151868403    4.45912432945062   -2.66402732480997
H          15.89562841119409   -4.07014540749977   -2.25594251246555
H          14.49479804867653   -4.34323723388616   -4.26243729660957
H           9.38853213972262    5.47600783660749    3.68758978192391
H           8.70840317946386    4.10936689953126    4.56395883462940
H           8.36411344994429    4.30149502678433    2.83113396679544
H          14.37446723689699    2.70253640995624    5.00137106791103
H          18.72688479459273   -0.79710239378551    2.12812250421479
H          21.04584284135937   -1.67780575214031    2.17313281695771
H          23.23025667933135   -1.88152766700691    3.29642011930392
H          23.61404389977997   -0.78668472392539    5.46907287167868
H          21.81971073049342    0.51841783359128    6.53693564566861
H          19.56512861363877    1.38771716698855    6.53323031781530
