103
 SCF done       -195.226364139018          0.000434915965
C           7.23058877394742   -1.24861383710539  -11.23849277752664
C           7.97460630180530   -1.45740410893891  -12.36805104414807
C           9.36842473369571   -1.30329643954994  -12.33651633933946
C           9.99830171742465   -0.94176974834986  -11.17686507731232
C           9.26238565489423   -0.71554678229466   -9.99625203761282
C           9.90679448203686   -0.32700970252665   -8.79898829501769
C           9.15897094230773   -0.11354941567405   -7.67367985229314
C           7.74524193618757   -0.29624919024320   -7.70455106707970
C           7.09713368239324   -0.66113754263139   -8.84869866574059
C           7.84710191522867   -0.87605967932972  -10.02785093824894
C           7.19092935920533   -0.04342987195560   -6.35981666610996
O           6.03027065787406   -0.05648207952720   -6.01638906061250
C           8.37698974799795    0.16579390458816   -5.48609547760497
C           9.53430206055802    0.33163860289774   -6.33660107666925
C          10.66616189944039    1.04195356599122   -6.02629878445695
C          10.82939193577827    1.73068018660619   -4.80692355357777
N          10.96733198225294    2.34552475890465   -3.84716971751173
C          11.73996362303896    1.23578482275547   -6.91525840030990
N          12.65450984773867    1.39809830367986   -7.59090643553464
C           8.24989719309916    0.06902084412108   -4.13252380834440
C           9.24109603642842   -0.20548606408104   -3.16580261799227
C           9.12134509348700   -0.01985907717296   -1.79789812395211
C          10.25351244812369   -0.42551576877923   -1.10315300455183
C          11.25110703364830   -0.97163801913785   -1.92904982702665
S          10.77508115220781   -0.96488612350277   -3.58252808844527
C          12.37299254824792   -1.36321386325157   -1.20261876464323
C          12.23044669377698   -1.12544596026696    0.18246067130517
S          10.70095773267649   -0.39960009322975    0.58727334664246
C          13.39387708592258   -1.56284586126656    0.79922890703823
C          14.23025933352714   -2.03216080939121   -0.22140456615181
N          13.59178418501973   -1.91435613557978   -1.42916165573779
C          13.99442194541163   -2.41642141055086   -2.71342547270158
C          15.56730880796039   -2.53245673764837   -0.04050433863930
C          16.64447266562138   -2.22714070071135   -0.89924602080910
C          17.95503569380612   -2.76379124831779   -0.67076425945373
N          18.95599554184341   -2.46564193670283   -1.51798465975981
C          18.73637072654308   -1.64554938302698   -2.50580509296732
C          17.46400094430246   -1.06537572805198   -2.68851584990979
N          16.45513705971490   -1.36091643357499   -1.91912643697499
C          18.26519319340566   -3.60187094116700    0.42452294376803
C          17.20433426338793   -3.85475862370451    1.31866525296463
C          15.88144601115008   -3.31550574939985    1.08712847155141
N          15.02458059018766   -3.69041884474701    2.04217713765910
S          15.79327945395087   -4.59980038700603    3.11201336121048
N          17.24769837580343   -4.58639814555675    2.43418019272014
C          19.57400604420255   -4.13135570267056    0.57550623392729
C          20.03520239259569   -4.96259244984193    1.58289558332690
C          21.36737638097678   -5.31303917416224    1.40270737778059
C          21.94039380594769   -4.75379238578842    0.25022555709900
S          20.80466140375695   -3.76491347167761   -0.61311297854002
C          23.27112771695888   -5.14411402706533    0.10000066401261
C          23.71250837581412   -5.99864154163313    1.14522356507992
S          22.46633145524439   -6.31991471202969    2.32080236112978
C          25.02674768122928   -6.33209729706771    0.89462075105931
C          25.38462099615341   -5.68095182818281   -0.30535785503478
N          24.28667887828731   -4.96211807465513   -0.76593856752242
C          24.20862849931682   -4.14992352087258   -1.95080098196657
C          26.56175468310204   -5.69858123015340   -1.06842290820301
C          27.78390016506701   -6.29181809736606   -0.87140027282373
C          28.83667676494807   -6.27165253552624   -1.86972884906861
C          28.72823817420397   -5.88149596983692   -3.18402484505678
C          29.79151437411948   -5.91782655496510   -4.10913400795658
N          30.60774218269406   -5.91498839791128   -4.91724787349604
C          27.55757288033591   -5.42462034035071   -3.81992277183555
N          26.64527965482947   -5.05424804168308   -4.41521395181656
C          30.04362954852692   -6.82090905601645   -1.26304750622202
C          29.72898255076073   -7.23816463022469    0.06005227193817
C          30.66147769380900   -7.80111006383636    0.88137008393953
C          31.98178465327198   -7.97444287486288    0.40747275711744
C          32.98818483864967   -8.54873352758127    1.20796069267414
C          34.26054880987357   -8.70412037557625    0.72791852384930
C          34.58145367403549   -8.29254073127195   -0.57397171203340
C          33.62660195789918   -7.73053456020196   -1.37707496746678
C          32.30668076209746   -7.55556658440392   -0.91445509576905
C          31.31720950608744   -6.97603290976250   -1.74209852616583
C          28.30915870376335   -6.95444362737319    0.34317059179250
O          27.73205592131128   -7.20693320980857    1.38148422925325
H           6.15691474353146   -1.36617375551253  -11.25719924205075
H           7.49331531788191   -1.74241098637981  -13.29165779117141
H           9.94096725680432   -1.47134962957323  -13.23646867628369
H          11.07098583897936   -0.81771346476742  -11.14804686487359
H          10.98024587851669   -0.21671822540690   -8.79755078050573
H           6.02418866976359   -0.78329006802085   -8.85726127048330
H           7.23331514692846    0.12791375488732   -3.75530926145608
H           8.25445776032753    0.42636901227466   -1.34630244368878
H          13.64160792841277   -1.53328281474885    1.83947952215802
H          14.68485374343524   -3.24858586630864   -2.58763141534510
H          14.48286701816347   -1.63753709181415   -3.30088707421340
H          13.10905861542321   -2.76271812668538   -3.24875263737723
H          19.56645890164338   -1.43280791590869   -3.16382577610146
H          17.27810045391971   -0.35278358739249   -3.48041446397080
H          19.41051959795961   -5.28423745480613    2.39468079878907
H          25.67778675651324   -6.95253051934840    1.47488307075147
H          24.45760944621750   -4.72660184912625   -2.84410997171851
H          24.88734632321957   -3.29659698932226   -1.88319125265737
H          23.18896802696679   -3.77991706090929   -2.04363002222264
H          26.47605301570597   -5.14048954407545   -1.99050111264563
H          30.39567723933287   -8.11037810312733    1.88141252029520
H          32.73525663265136   -8.86391604773946    2.20985845232770
H          35.02632111650519   -9.14481405366171    1.34878930574425
H          35.58965044805068   -8.42300107566332   -0.93795550680725
H          33.86826613193640   -7.41276472750157   -2.38085986537448
H          31.59779379825557   -6.66460885050540   -2.73556824405503
