111
 SCF done       -209.434563780953          0.000753383756
C           0.31834831565753    4.56521656118419    0.97230123996784
C          -0.54685122678905    4.50408889193766    2.03103825670016
C          -0.41371785347515    3.49568340901344    2.99673874228330
C           0.58263379407272    2.56354892551368    2.89126639580898
C           1.49042515244748    2.59676026331318    1.81375073283947
C           2.51844461120231    1.63198138804638    1.69720232790593
C           3.38282380773469    1.69567706420267    0.63865509072550
C           3.25091146175938    2.73252488182237   -0.33022369922646
C           2.26394182215238    3.67081362618647   -0.24783187276431
C           1.35490239639988    3.62164509444780    0.83378234735570
C           4.32518221445974    2.59865962788222   -1.33116443411314
O           4.50415521931844    3.26252478122605   -2.32756856624176
C           5.19601671804801    1.50092762162654   -0.82729931900964
C           4.50365283991193    0.84164330906777    0.25221212611066
C           4.69157952759309   -0.45001035148140    0.68118437929034
C           5.61944475417357   -1.33987181565130    0.10765710320137
N           6.34348526450047   -2.10899973341702   -0.34328083472155
C           3.92892524609236   -1.05968880983100    1.69606031017969
N           3.36313848545155   -1.59588966910067    2.53948629209348
C           6.44692294630760    1.36720241964529   -1.36369467285519
C           7.58997982637263    0.73799356500015   -0.84275064049973
C           7.86838562436506    0.31725113718175    0.45968706293042
C           9.13784497504666   -0.20264640103554    0.58706006052239
C           9.85935923439961   -0.18802019715682   -0.61866151345385
S           8.96811871296709    0.49251854039504   -1.90668375462059
C          11.13753922810100   -0.73488549302257   -0.40022920067803
C          11.23963781292713   -1.11210505491136    0.94826302258474
C           9.95782202551234   -0.82259234562967    1.69249458918471
C           9.30204275260168   -2.11520230753326    2.18914723206974
C          10.18922983793342    0.15101790673612    2.85040817093944
C          12.47753541638671   -1.63133961081427    1.26194423947937
C          13.33909729334171   -1.65313138706705    0.16320920263190
S          12.57950604467603   -1.02970247410636   -1.28508977810537
C          14.69176993232014   -2.07633491833104    0.16083188674284
C          15.48839445969245   -2.02616758593992   -1.00826392691619
C          16.88110218630773   -2.38086456685331   -1.03539370320803
N          17.54890166188730   -2.28901648366086   -2.20402447508009
C          16.93389040037095   -1.88736890274255   -3.26841164463629
C          15.56333211188977   -1.53367559736864   -3.24201521193042
N          14.88961891814481   -1.60931520047012   -2.14044982332104
F          14.93196739287361   -1.11730188212800   -4.33560819267143
F          17.64321167035419   -1.81829744848126   -4.39566975534956
C          17.56152892822968   -2.80912622182885    0.13134849147287
C          16.75447473630280   -2.90119114837094    1.29045829115838
C          15.35663875767398   -2.54830003305116    1.31851653475782
N          14.83707254224978   -2.71851873598053    2.53516243308530
S          15.97134054694946   -3.26327968684143    3.53226536600761
N          17.18460961374205   -3.30962610210013    2.48270417819521
C          18.94883528611851   -3.10422097789648    0.19857764497949
C          19.89982515958011   -3.05244391290440   -0.82100098266820
C          21.16962327577437   -3.35390460066454   -0.37404530052959
C          21.20784218457087   -3.64400180338406    0.99859915785681
S          19.66199534918897   -3.55430552543884    1.73786348921921
C          22.53988560700339   -3.89890105389018    1.37215062714746
C          23.36744414544035   -3.77571196996001    0.24036621440109
C          22.55032214815177   -3.42797921422551   -0.98127745298470
C          22.97600548766784   -2.07984398370695   -1.56912542335529
C          22.63753234189139   -4.52995187684382   -2.04111278003420
C          24.70131451972381   -3.97558311004759    0.51805090405153
C          24.93072653604963   -4.25389499456392    1.86695449603936
S          23.41810356707836   -4.27222662742797    2.78671468312267
C          26.09825118734026   -4.47545496461104    2.61234432356237
C          27.42503054749904   -4.51014441413034    2.25803528363290
C          28.49992780382634   -4.69577197064005    3.21916601541576
C          28.39534805440191   -4.80642798520815    4.58388432564796
C          29.49681114273475   -4.98094310412859    5.44819155399379
N          30.33908402378468   -5.12462770745212    6.21571866925467
C          27.21461703941492   -4.75414542640798    5.35357590718182
N          26.31934731695880   -4.71920699239445    6.07397763659736
C          29.76169669090737   -4.71558010209340    2.48554545089607
C          29.48004929815473   -4.53372354717973    1.10381541812570
C          30.46540266651970   -4.49832379153002    0.16030545332888
C          31.81106905606914   -4.64293032147745    0.56520582573684
C          32.87306740579864   -4.60809158581787   -0.35936539779980
C          34.16897139418221   -4.74552426410731    0.05871594936155
C          34.45874991751442   -4.92513990112186    1.41939635835220
C          33.44956141855695   -4.96543012462260    2.34266102132238
C          32.10382570299170   -4.82579606033508    1.94698629184730
C          31.05919889009448   -4.86185152218404    2.89958547443781
C          28.02687637141138   -4.39599132259133    0.91053620249457
O          27.47574072012094   -4.23124766560971   -0.16130260191950
H           0.22093398970311    5.33966499568738    0.22552832482864
H          -1.33786486921682    5.23238984900250    2.13001768282234
H          -1.10536369638047    3.46035162410536    3.82514327800834
H           0.68714702609090    1.78307676684264    3.63074275891769
H           2.60249889902529    0.87164154717059    2.45811150847756
H           2.17681684423776    4.44330793864500   -0.99734414214628
H           6.58852494160423    1.90175938178806   -2.29881953998631
H           7.17450296124253    0.44205799788632    1.27118917766770
H           9.10177991514889   -2.78136386917175    1.35370040185225
H           8.35934677047886   -1.89077095348884    2.68178520183083
H           9.95848668577637   -2.61904329740177    2.89386448483040
H          10.65071634844239    1.06751955158837    2.48947850763603
H          10.84456436653390   -0.30182819086565    3.58984352653667
H           9.24324896253919    0.39927646759361    3.32512680864769
H          12.78877748323225   -1.98240646334388    2.22778865220934
H          19.63548221037943   -2.79524091579815   -1.82815474401878
H          22.90997356631414   -1.29940619561812   -0.81437664025629
H          22.32891414824008   -1.81615042698416   -2.40158384802305
H          24.00205891121541   -2.13736494589943   -1.92281281353784
H          22.32817552654462   -5.48467471976840   -1.62190161178301
H          23.66022138455968   -4.62025843863127   -2.39776840907962
H          21.98955136908341   -4.29046893293714   -2.88021328732593
H          25.50481648315402   -3.92818805850712   -0.19372418020197
H          25.89383111863101   -4.63306938857393    3.66466815214062
H          30.22067166363147   -4.35846617474765   -0.88229570110483
H          32.64354146439145   -4.46984428323169   -1.40595677045252
H          34.97748925856022   -4.71669635049194   -0.65649384087068
H          35.48658271003216   -5.03090752412283    1.73289622099256
H          33.66763942790950   -5.10286885205374    3.39165894686833
H          31.31859373020448   -5.00423456481365    3.93611636963528
