105
 SCF done       -209.575367491506          0.000949640030
C           3.05520573664078    7.45989387379310    1.90163853747438
C           3.27369128153089    8.53931173600478    2.71412227006289
C           4.33771769097558    8.53313198480653    3.62802740903969
C           5.16814461263013    7.44877727653229    3.71732543718939
C           4.97075547407472    6.31938246024804    2.89804287268757
C           5.81887773773117    5.19105996138296    2.99633540108740
C           5.59261493946610    4.10887209647379    2.19136779811883
C           4.52332590441059    4.13161625430305    1.24826385874808
C           3.68563882326752    5.20443445663823    1.13594337247812
C           3.89052172024878    6.32735244870674    1.96870000623146
C           4.52834609283210    2.87682803664307    0.48551735632956
O           3.75089882608018    2.50289118019751   -0.36292177311990
C           5.75134680236053    2.13784642455795    0.94315083951314
C           6.26955761534500    2.81799813585409    2.10149661226624
C           7.09843349282291    2.29133803971249    3.06019392750523
C           7.50209153061071    0.94359909381170    3.07525918003118
N           7.82882829109511   -0.15564891864458    3.13043365301918
C           7.52059339305719    2.98854643247802    4.21163393268444
N           7.88562894509781    3.50076231834213    5.17106859853533
C           6.16230503505719    1.08187821660478    0.18439475454550
C           7.40368846048435    0.41405426394441    0.10678154503298
C           8.69260547779066    0.79513675673102    0.48839529689101
C           9.59792603634391   -0.20587709408593    0.06415350017977
C           8.84281159125200   -1.26143094442283   -0.58018723365082
O           9.16203264874503   -2.32842712494815   -1.06074810104533
N           7.51942460388296   -0.79205336291190   -0.54778757905435
C           6.43333608931263   -1.57405170280678   -1.07185259848748
C          10.87105093063463    0.13349717007827    0.51447334134512
N          10.78052398954705    1.31741514415309    1.18117233379899
C           9.46161186483769    1.81018032235377    1.17225778826949
O           9.14107117017793    2.87619121340330    1.66252334012555
C          11.85351354951084    2.10768461021080    1.72246763139434
C          12.03102874776066   -0.68534793016608    0.28580456134941
C          13.01583414610694   -1.01607332938699    1.23461300779697
C          14.01803999891778   -2.00225263138962    0.94923315984008
N          14.87229928864258   -2.39079129963725    1.92114041244889
C          14.83223140422887   -1.79642341222638    3.06443511156738
C          13.87678796352335   -0.77443098270199    3.33070350594426
N          12.98871440534930   -0.43571210554325    2.45729486330977
F          13.84620650935680   -0.15909391360099    4.50812541188798
F          15.67083000429130   -2.20276351650359    4.00971492108997
C          14.10260709833750   -2.66146238755471   -0.29594213080002
C          13.13324595607811   -2.32447594067035   -1.25305215793631
C          12.12725043214961   -1.32877394392891   -0.96426232156974
N          11.36963935280246   -1.06877794263976   -2.03101655232021
S          11.82080553628419   -2.01012983450939   -3.23504689897749
N          13.03746260285256   -2.76555305640809   -2.51264582287356
C          15.22811517098815   -3.52419003780158   -0.53252761153002
C          16.53510774970670   -3.24211498440887   -0.15654721963163
C          17.35708219662694   -4.31220758062506   -0.59508245383313
C          16.51578509373523   -5.28932538426784   -1.25061940042025
O          16.75146951424942   -6.35894527294327   -1.76508288708066
N          15.21820677941809   -4.72505782368371   -1.17622847869227
C          14.06383589126512   -5.44348406362981   -1.64191792200357
C          18.67938139748529   -3.96738429228308   -0.35708893508560
N          18.69777989408827   -2.74438766458752    0.24177910025549
C          17.39282565675799   -2.21694399886467    0.40016792990964
O          17.16853387492773   -1.14131647129215    0.90886327270058
C          19.85264171137230   -2.04419464307173    0.73154148138795
C          19.82038717561663   -4.78317469545058   -0.67873179239533
C          20.85398641349980   -4.42458918647747   -1.47085974262195
C          21.98659733137331   -5.25663637395600   -1.85432805386533
C          22.47740660720464   -6.30912214998460   -1.13376430252563
C          23.60257517013180   -7.06922512114680   -1.51789800676950
N          24.51106153019227   -7.71512646719922   -1.78956863194947
C          21.95252951315272   -6.71411742671511    0.11300266095608
N          21.58730015121912   -7.05755572040535    1.14518368870520
C          22.54457614385276   -4.69839508362005   -3.07571063374738
C          21.87739397753751   -3.47138617726284   -3.36451379785243
C          22.19253429397298   -2.72373582415976   -4.46348909728633
C          23.20033660181942   -3.18013250184140   -5.34160807534444
C          23.56061214554670   -2.45495908390662   -6.49452712624447
C          24.53119737654992   -2.92155388497660   -7.33909210863775
C          25.18568524185984   -4.13236222036666   -7.06669398965363
C          24.86127393113981   -4.86011364781674   -5.95420176388899
C          23.86573983403294   -4.41000533360025   -5.06322608634752
C          23.52370691603135   -5.16037541890567   -3.91552185064562
C          20.84818175995481   -3.21389333128681   -2.34682223362506
O          20.10541195323646   -2.26173597785700   -2.26802235825408
H           2.23741496359834    7.45852365995157    1.19578246261068
H           2.62809049527812    9.40292148794863    2.65702847111501
H           4.49642610630274    9.39259885696721    4.26203812763465
H           5.98738997205016    7.43877825212046    4.42100579016934
H           6.63591137434964    5.21476450295156    3.69965230455844
H           2.87723517572791    5.19803998691397    0.41982160924350
H           5.41961569610988    0.76155489420434   -0.54219023147130
H           6.86239265200780   -2.51440030390417   -1.41823531614437
H           5.95437491146418   -1.06965003550208   -1.91404082305446
H           5.69047381451450   -1.77803036536493   -0.29928219936845
H          12.70826318006612    2.10120947438521    1.04690072876454
H          12.16164243257546    1.72471312126158    2.69501836381977
H          11.47711888784172    3.12415100179926    1.84019368988511
H          14.41085054425913   -6.42430678521976   -1.96657256989524
H          13.59699145666612   -4.92038164374233   -2.47753331918151
H          13.33443074086167   -5.55730616353202   -0.83855044159304
H          20.35257688949718   -1.51474659525998   -0.08200021608800
H          20.54883018205651   -2.73951498401820    1.20065678215506
H          19.50392253567408   -1.31533337432956    1.46297168123029
H          19.74322832238906   -5.80797956684234   -0.33306651435417
H          21.67417258418109   -1.79764785975826   -4.66337664349475
H          23.05266515945638   -1.52408682711913   -6.69980569507827
H          24.79916737416954   -2.36098736273910   -8.22200402257557
H          25.94857491566999   -4.48612332485324   -7.74366806144815
H          25.36289792526303   -5.79221222316398   -5.73982927391321
H          24.03591890507372   -6.09218851228164   -3.73371063764527
