95
 SCF done       -181.957348427592          0.000686777539
C           5.59665766158396   -1.64101310421599   -8.59179820578318
C           6.30269025005136   -1.82610579314350   -9.74950665557071
C           7.67557997815608   -1.54255062791333   -9.79403881960016
C           8.32282619995280   -1.07916169522305   -8.68108713152201
C           7.62620379125688   -0.87579974663275   -7.47273971748500
C           8.28777765070972   -0.38751183432144   -6.32202026832659
C           7.57818382937991   -0.20194131582439   -5.16703380032113
C           6.18517594082974   -0.50468181897192   -5.12488970185664
C           5.52068044082208   -0.96929250292505   -6.22204358865637
C           6.23194510270326   -1.16496262973009   -7.42823895646396
C           5.66810950285687   -0.24483765693549   -3.76561939849918
O           4.52803126360075   -0.34706473737222   -3.37161491685465
C           6.86639359804492    0.10522399214597   -2.96053389429700
C           7.97260243550206    0.32197030669490   -3.86475458713125
C           9.07118036975438    1.10694304758989   -3.61700116806177
C           9.21196395276735    1.87451102696324   -2.44228760179808
N           9.31424336709037    2.56618417796007   -1.53128726413743
C          10.14544203411171    1.26186266981474   -4.50841259348915
N          11.07855914903365    1.37703950150102   -5.16976500904816
C           6.82035320900691    0.04490259505751   -1.59828278429783
C           7.89554780032771   -0.10924673909369   -0.70037343180381
C           7.87988201538896    0.17423366497065    0.66526919214339
C           9.08453615119741   -0.15813096239577    1.31386719434395
S           9.50314845743921    0.18652513125526    2.97945017946717
C           7.87940141540672    0.61532292515541    3.69382575427449
C           7.15952363383390    1.65590722624693    2.87019989883602
S           6.45871564363441    0.92301180226099    1.35801448874448
C          10.02814610599270   -0.69663452225045    0.44044819348471
S           9.44277007483406   -0.74256635647245   -1.18643970319667
C          11.36104838736443   -1.14363299981893    0.68183359379931
C          12.32841673120186   -1.04346815710828   -0.34917797030738
C          13.69992876251954   -1.39352890534340   -0.14420920626610
N          14.57505819084700   -1.22690756605714   -1.14662230557368
C          14.16400874792007   -0.80282052204020   -2.30620269551412
C          12.80415709394877   -0.49318496949353   -2.52135985785237
N          11.93487876612677   -0.59984119898008   -1.55695255854137
C          14.18017404226737   -1.92423791140869    1.08205638656738
C          13.18636692822944   -2.15719049802440    2.05407764140147
C          11.80554219278263   -1.76561281763034    1.86361506368914
N          11.03763953497837   -2.17329598851604    2.87634055275260
S          11.93908593469421   -2.94889185305032    3.94737493211334
N          13.34742191209953   -2.82995300009152    3.19327420355847
C          15.55428581307661   -2.26455670938948    1.21868542949546
C          16.31392632080422   -2.45221654239836    2.38269126569187
C          17.63275173471454   -2.82517752735253    2.09726822086065
S          18.94266837842390   -3.15885195714069    3.21075395452457
C          18.16557150281465   -2.93428006482541    4.84144728422501
C          17.25754476198417   -1.72872724529923    4.84250634109137
S          15.68800737695983   -2.12258371164768    3.98905361301708
C          17.89800012646205   -2.91146235362346    0.71538359891204
S          16.50018452840699   -2.45974022297851   -0.22308409237017
C          19.13741879417110   -3.32292540935209    0.21302493515610
C          19.60527522143030   -3.34542534530071   -1.07759508153435
C          20.92157843885874   -3.79664154861823   -1.48125044093587
C          21.83952167253404   -4.47135536319251   -0.71607115875098
C          23.10029572436086   -4.89146396181723   -1.18755899051803
N          24.14147762593064   -5.25860079160453   -1.50399568983199
C          21.66814704192513   -4.87214776170116    0.62529955479628
N          21.61787942886485   -5.25284361094371    1.70819414213019
C          21.09632817663302   -3.44480496038912   -2.88793830688551
C          19.89080186163708   -2.84898807834822   -3.35646968734638
C          19.75172317512746   -2.41011402025475   -4.64081975057290
C          20.83687041830686   -2.54645869677670   -5.53598111284281
C          20.75596758190490   -2.10815362564189   -6.87200150271426
C          21.82104809879895   -2.24858817071816   -7.72011535330666
C          23.01269611122009   -2.83454087230136   -7.26894495431351
C          23.12352397504880   -3.27053130818902   -5.97638578947566
C          22.04687141417707   -3.14049879101731   -5.07631787994923
C          22.15911658928309   -3.58794965737340   -3.73889736351738
C          18.91276045202229   -2.80782605469597   -2.25673768199198
O          17.76643124610500   -2.40090287082047   -2.32878138056062
H           4.53908370255451   -1.85769402915362   -8.55150472533483
H           5.80729830111587   -2.19176210223192  -10.63659132591085
H           8.21817957751319   -1.69262533894633  -10.71552621668017
H           9.37956363591339   -0.85696489081439   -8.71139228091419
H           9.34541685206293   -0.18054549425925   -6.37827490101805
H           4.46347506179263   -1.18421134255206   -6.17347828398091
H           5.82624649447774    0.02569641531653   -1.16064919413393
H           8.11721982706227    0.99722725888586    4.68680011784483
H           7.28842900979599   -0.29613464513467    3.78819374037045
H           7.82556185466809    2.46872363456576    2.57987690510785
H           6.30180810448173    2.06008696505073    3.40776293116075
H          14.91328377107190   -0.68600195045292   -3.07481600615129
H          12.44264250228623   -0.13039673253944   -3.47350050191054
H          19.00518273030818   -2.80970190471183    5.52607333954719
H          17.61723422775654   -3.84013644331633    5.10095663681144
H          17.72700280150653   -0.86871534214519    4.36549461052107
H          16.95881577180641   -1.46592342350104    5.85662378569242
H          19.82757585728505   -3.65680510062551    0.98031520938462
H          18.82619513121884   -1.96204999403066   -4.97079172991534
H          19.83559887799911   -1.65748901069250   -7.21392997658287
H          21.75087668792007   -1.90876463203370   -8.74268336206327
H          23.84349228962723   -2.93884244934053   -7.95069146058621
H          24.03910394086544   -3.72274307281992   -5.62423309896022
H          23.09085114675966   -4.02875877728538   -3.42241981765670
