103
 SCF done       -230.561498370934          0.000912831955
C          -2.12742273606815   -0.82412582855240    3.44355548272215
C          -2.90241661810105   -1.96136504470220    3.60529722047491
C          -2.42127494933665   -3.21511620680638    3.23661175309530
C          -1.14661391932020   -3.36220142608142    2.70005619366434
C          -0.37758776792175   -2.22676733454082    2.54419756367045
C          -0.85373400875052   -0.95243979968786    2.90382136845775
C           0.17094690928427    0.04729390286325    2.61648029319467
C           0.07514946404584    1.38795797422364    2.84000761826278
C          -1.05753599162154    2.02728888722438    3.39530452388574
N          -1.94441815331762    2.60194172297599    3.84028852329251
C           1.09597493273662    2.32370361607505    2.55193810243904
N           1.88106617474004    3.13352880679142    2.34582586808396
C           1.32229035472601   -0.65833533033829    2.04920503627489
C           2.49339719994688   -0.19231766324393    1.60958748785152
C           0.99642763257311   -2.12051205304061    2.01116316088925
O           1.71602281567429   -3.00925164637791    1.63284170780097
C          -3.31602850873850   -4.42026397067883    3.37365696864446
F          -5.00961996398437   -3.43096652392774    2.06421049139898
F          -2.59194061212245   -5.56648294767950    3.48113162739347
F          -4.06890059152278   -4.35701507277027    4.49872919639799
C          -4.24963949237649   -4.56947009534968    2.13360692807625
C          -3.45811152691624   -4.78616344352485    0.88251788023140
C          -3.67943510450351   -5.97983040426661    0.31496858145823
C          -4.67805394382046   -6.80684779958180    0.97356747286923
S          -5.36801145956466   -6.04504258053857    2.35430832023534
C          -4.80297958509105   -7.98086750789992    0.28396274366690
C          -3.89167323104056   -7.96763443442768   -0.83996820489678
C          -3.17221420389387   -6.71884301295511   -0.84107473898429
C          -2.21324883390724   -6.29413388200554   -1.71523538375129
C          -1.79155278872665   -7.08748780093441   -2.80324403138872
N          -1.45301541469886   -7.73240165177371   -3.68828699600378
C          -1.59136704024039   -5.03531576360612   -1.58178935294345
N          -1.09346381763675   -4.00893182338378   -1.46439739251394
C          -3.95232297873137   -9.10960790863144   -1.59212371286082
C          -4.89484533844054  -10.02620342855624   -1.08395486068320
S          -5.72265827806401   -9.44067140083034    0.36665320372222
C          -5.22136271439242  -11.27244683603670   -1.57529863553822
C          -6.18998650262439  -12.11031269056388   -0.97618062982003
C          -6.37141343125971  -13.35583480660218   -1.64200023141723
N          -7.30110503731518  -14.21129950874496   -1.23765649339208
C          -8.01644362264761  -13.86058222916030   -0.17623929606939
C          -9.11450789006175  -14.78322212075918    0.21972528155258
O          -9.45943618222030  -15.71633778993459   -0.46807751921863
C          -9.77555988106818  -14.44763064532138    1.49661514851697
C          -9.52046760056463  -13.33247548663049    2.18607861656564
C          -8.54345296678777  -12.31314706930369    1.75590786771102
O          -8.37290388200536  -11.27840697838217    2.36110326760694
C          -7.78212957197918  -12.65630247194736    0.52638476157306
N          -6.87485659293198  -11.78188485389886    0.10958505769446
C          -5.51291412284186  -13.50460786238498   -2.76537860193082
S          -4.54081524031165  -12.05841699823569   -2.98367326067127
C          -5.44177604124583  -14.60814926551901   -3.59025681546687
C          -6.10660774288082  -15.83474350915373   -3.37032637066218
C          -5.84153944241319  -16.74830382154317   -4.35141072875626
C          -4.98187395038148  -16.23686804329847   -5.39918901292827
S          -4.47181823440282  -14.62180105397097   -5.07178136641431
C          -4.83773790273030  -17.18573574484403   -6.36628502646101
C          -5.59358843217614  -18.36924049878207   -5.97965072194054
C          -6.20197580877112  -18.10621750344078   -4.67469924379713
C          -6.90385322702525  -18.99029666589985   -3.90901176497717
C          -7.20245171228244  -20.29713679861146   -4.34959352349700
N          -7.45618341044413  -21.35847764359698   -4.70109550014244
C          -7.33181309193803  -18.68591119583500   -2.59716375415140
N          -7.64272568447773  -18.48332210244069   -1.51300768435150
C          -5.56062914185320  -19.38192384304655   -6.85606857597341
C          -4.70469589379893  -19.10624219827309   -8.05126565389190
S          -4.05412393158976  -17.37150459469743   -7.89440468639505
C          -3.49974608966395  -20.09358666281942   -8.15046526536828
C          -2.72842593437076  -19.91095800154956   -9.42988167465126
C          -3.15449412475819  -20.57654878711650  -10.57427674783013
C          -2.45416331812037  -20.35901721689208  -11.74366736158179
C          -1.34364693316279  -19.49581342580914  -11.79500092582557
C          -0.93356233004111  -18.83743410780006  -10.64280068778862
C          -1.63430895515144  -19.05023953805559   -9.46654125869670
C          -0.80945699861546  -19.47025383258860  -13.15344811984325
C           0.28641283339782  -18.78055334462963  -13.57801036057220
C           1.08583608522905  -17.96114789311190  -12.74782774871333
N           1.76993128034789  -17.28354363316862  -12.12496632244410
C           0.77835462063370  -18.79694381041377  -14.90393839894696
N           1.22873829048200  -18.76780506689925  -15.95798313067433
C          -1.65784036070925  -20.33914958830019  -13.97189496794672
C          -1.61369207000370  -20.61513559433389  -15.27716742291133
C          -2.70533681736439  -20.93521737195837  -13.08049079625928
O          -3.56353983241326  -21.71548020056779  -13.40558893346794
F          -3.97309521517257  -21.36066811435694   -8.03899268256579
F          -5.41044703103535  -19.21276863989058   -9.22072630316115
F          -2.72015428052414  -19.90430844592099   -7.05226466046257
H          -2.52431103989472    0.13379169360559    3.73618060360736
H          -3.89368268986482   -1.87852602534083    4.02359847509002
H          -0.75605795399400   -4.32875766697907    2.42047907082729
H           2.76901617738366    0.84732499443794    1.61444730669755
H           3.21408868742555   -0.89667002214061    1.22406170435232
H          -2.79795255209920   -4.01097843345865    0.53858417050495
H          -3.37009595310195   -9.32270245057452   -2.47148078812959
H         -10.51371643165835  -15.16372857286122    1.83116229668171
H         -10.04033789853473  -13.10607880242225    3.10712392318047
H          -6.74453895758606  -15.97481573454706   -2.51512241402056
H          -6.05566611297750  -20.33394479974508   -6.78377589098949
H          -4.00119125290412  -21.24507896027290  -10.55741515018630
H          -0.08882164230176  -18.16870589991451  -10.64304559621527
H          -1.32140498386939  -18.55053315326361   -8.56257265284555
H          -0.88900215866040  -20.20376139363373  -15.95717350687499
H          -2.34925779597244  -21.29194978955126  -15.68326333013335
