101
 SCF done       -232.525793235442          0.000380391368
C          -3.45331877474780   -2.63214232642442    5.79690307994121
C          -3.50957661532635   -2.74258416569228    4.41733770671949
C          -4.40559999687220   -3.61426950827586    3.80273556229294
C          -5.26955003921857   -4.40114468894456    4.55617748173914
C          -5.20794252051628   -4.28815964039430    5.93107825887100
C          -4.30691679727928   -3.41319848670097    6.56566732358458
C          -4.46935487292928   -3.51270057554836    8.01310430477307
C          -3.77005695839977   -2.81807105373900    8.95385549585393
C          -2.75865232186234   -1.87315631268953    8.66351634787633
N          -1.93255678598854   -1.09657134520704    8.49282238043810
C          -3.96024057536145   -2.94544544508882   10.34961652546372
N          -4.06257637949748   -3.00162702313351   11.49017767423837
C          -5.52301612085768   -4.49789023225878    8.26679511242447
C          -6.03839781735633   -4.93974030909528    9.41617454818987
C          -6.00862044800858   -5.00637179514018    6.94323836543821
O          -6.87098329201607   -5.82820894790007    6.76223389690781
C          -4.39285850312801   -3.74065743495857    2.30304766266956
F          -4.11888731781778   -2.55227681583547    1.70576605743403
F          -5.60429103461445   -4.11701243901554    1.81531151420722
F          -2.13939437384388   -4.43298836844227    2.37561731139892
C          -3.34107734151192   -4.78827856655648    1.82049867609382
C          -3.26634760543290   -4.86832882577449    0.32870166905114
C          -3.62501952227177   -6.06460409318044   -0.15658141874205
C          -3.97191250864790   -7.06554809980221    0.84348224372977
S          -3.83003252339068   -6.46796452657866    2.45423153477045
C          -4.31114044334292   -8.22810529602994    0.21541028662994
C          -4.19413777706283   -8.03824183215515   -1.21376894864017
C          -3.76697884114008   -6.68577010076841   -1.47401818675506
C          -3.53624986987916   -6.09904392696021   -2.68384155812522
C          -3.70593786885407   -6.79615063441302   -3.89994695124110
N          -3.83945735023121   -7.35135233580035   -4.89380359679218
C          -3.10850929544766   -4.76017640385475   -2.80632802113711
N          -2.75614587174325   -3.67473188198235   -2.91538238995090
C          -4.49640815333915   -9.16377710050618   -1.92809970093396
C          -4.85795802482400  -10.24718245551580   -1.09826325235792
S          -4.82171188209104   -9.83352509391602    0.61294386875937
C          -5.20346040933491  -11.52857381547239   -1.52182470526031
C          -5.55793831856125  -12.53454021827814   -0.57409444760945
C          -5.89967313396973  -13.86111879932913   -0.96034614621171
N          -6.23042913174261  -14.75924970909653   -0.02384487671701
C          -6.22937688930818  -14.40412671495044    1.23396410800072
C          -5.88417878557514  -13.09805989062188    1.61532666282634
N          -5.56071948015654  -12.20044377912901    0.72185694536399
F          -5.87254822895606  -12.72561095040356    2.89163929152586
F          -6.56631728626615  -15.32570345347431    2.13149627088681
C          -5.89392549582640  -14.28783466991508   -2.32085245965975
C          -5.55518483811837  -13.28473701950179   -3.27917623651071
C          -5.22308181310789  -11.93847164609365   -2.89004591457853
N          -4.94373108521495  -11.17882212963143   -3.94079674784245
S          -5.08072055393097  -12.04984183441777   -5.29091962833516
N          -5.50273964810727  -13.44247520703252   -4.59512919606873
C          -6.18794753272374  -15.61048435456271   -2.64898481208792
C          -6.16926255031821  -16.17175426413552   -3.94326594580408
C          -6.47314974846804  -17.50544573595643   -3.93757567820784
C          -6.74985010694907  -18.01546716261415   -2.61395741691918
S          -6.60735025117925  -16.78237359969887   -1.40523783517031
C          -7.02837890407516  -19.34824341706882   -2.70475789097580
C          -6.92840792779433  -19.76404407488702   -4.09654094455741
C          -6.58616798808209  -18.58194327552055   -4.88935032603063
C          -6.41175480547844  -18.52884961558832   -6.24191235569671
C          -6.56378431799849  -19.66674110215124   -7.06109468038324
N          -6.69101427821736  -20.59471116443265   -7.72253823313040
C          -6.07321944490374  -17.33255392295022   -6.91031607055044
N          -5.79640935564503  -16.36840196409680   -7.46495786696926
C          -7.13878027408694  -21.06672052355158   -4.32365195037389
C          -7.42526260013435  -21.86669403468700   -3.08562747445098
S          -7.43180183595440  -20.65153768169276   -1.65932341116351
C          -6.24204311711698  -22.82997188510481   -2.85089685409813
C          -8.69371688103239  -22.69315487709308   -3.10921116440319
C          -9.25822807165451  -23.10528123582736   -4.31214652828909
C         -10.38279346206146  -23.90612499686929   -4.26688661305268
C         -10.96550613854271  -24.31076057470027   -3.05335055463075
C         -10.39542392553531  -23.89423182255159   -1.85757957037778
C          -9.26678298095703  -23.09316564043364   -1.90192010405269
C         -12.12592743916807  -25.15286111014433   -3.32541980976240
C         -12.96792057668227  -25.69103311666493   -2.39933348540698
C         -12.84045108011513  -25.50449306407553   -1.00333104053884
N         -12.78932026799393  -25.38385279276674    0.13575934995810
C         -14.08848614107072  -26.49668057400676   -2.70842733069641
N         -15.01047082242902  -27.15336312797564   -2.89038747001223
C         -12.22833683810980  -25.29520853784864   -4.77958947310644
C         -13.07849954268513  -26.00660334673593   -5.52316015722101
C         -11.13784869208827  -24.47676729904693   -5.40152454628587
O         -10.93374452488453  -24.32709188281391   -6.57933311054343
F          -6.16046988600135  -23.73619177053891   -3.83251812320203
F          -5.07124298055508  -22.18503234773122   -2.81826034397635
F          -6.34780600054931  -23.50725543393032   -1.70480934574110
H          -2.75249528786118   -1.94831781138130    6.24626228829005
H          -2.85240332942459   -2.14319819237779    3.80635889267834
H          -5.97568670861677   -5.07329359722456    4.09375667117018
H          -5.72240296288185   -4.60373662342360   10.38775214815379
H          -6.82148486806848   -5.68079346798100    9.37616382479735
H          -2.96045109159120   -3.99625763303115   -0.22145860661353
H          -4.47620922709476   -9.26995405266247   -2.99807654465901
H          -5.92842375127493  -15.57202378651807   -4.80277643001993
H          -7.05542754140003  -21.56375412195963   -5.27346569426611
H          -8.84891675746964  -22.83345996866471   -5.27158886079406
H         -10.80356702081940  -24.18313242100734   -0.90326311353460
H          -8.81939214170516  -22.77390010705917   -0.97238328832065
H         -13.86533610428989  -26.61899615398322   -5.11980792410565
H         -12.97382039285067  -25.97370280645298   -6.59644797872162
