137
 SCF done       -294.622138729495          0.001051664458
C         -16.93186626437832  -13.45474483275161   -3.91210866022483
C         -16.00350267383455  -14.00298093458329   -3.04258516244418
C         -15.00808681967109  -14.86205720037982   -3.50050680154897
C         -14.90408853699784  -15.17995391699951   -4.84938112091636
C         -15.83309874435639  -14.63395462003414   -5.71367588535169
C         -16.85359219629409  -13.77562245857339   -5.26131909173672
C         -17.69144060037868  -13.37690272258312   -6.38701213491307
C         -18.77666080515774  -12.55363234931241   -6.33610043554746
C         -19.25964889089354  -11.93726792043822   -5.15889285818932
N         -19.69910406465200  -11.40554909604272   -4.24272510004794
C         -19.56815711913885  -12.20113889341070   -7.45341816462613
N         -20.25067610289696  -11.87696438382872   -8.31600744225486
C         -17.15336403601573  -14.02877036565220   -7.58273270331707
C         -17.56977573668438  -13.99557993530909   -8.85026758530087
C         -15.95420373677453  -14.83019140607187   -7.17184759035834
O         -15.25220251265234  -15.48845852648889   -7.89709556636375
C         -14.00474701932283  -15.42578312737003   -2.51851903419226
F          -9.95301182663784  -16.68682320345259   -4.51965426892480
F         -14.60427606650052  -15.65112316844041   -1.30735143985253
F         -13.57010525436064  -16.64817320195901   -2.92239313053516
C         -12.83608456987096  -14.49968511139537   -2.34881619335832
C         -11.55127129270001  -14.73784103599201   -2.70407263890373
C         -10.67546774847676  -13.66356795595194   -2.38591057375781
C          -9.28283371711136  -13.56220222163050   -2.62256543169274
C          -8.49324062310461  -14.60929361735506   -3.21250453731457
C          -7.28092969122873  -14.50634923601035   -3.84419708741021
C          -6.67164612463024  -15.76027387929397   -4.09753770019968
C          -7.38999592290812  -16.84302531427737   -3.66162705366014
S          -8.88306964045148  -16.31906958599883   -2.98694791492725
C          -7.05784971008349  -18.28834273834375   -3.74106435539080
Cl         -5.14225337500769  -15.87947221258063   -4.84710499337693
C          -8.67329038076731  -12.37132116869418   -2.20422562974471
C          -9.38432779823599  -11.30549572232242   -1.60027980675884
C         -10.78102949616908  -11.38834384714501   -1.40718306389414
C         -11.37680721845966  -12.59062772514427   -1.78654657968813
S         -13.07736711019659  -12.93940973233973   -1.63106709529783
C         -11.55326634514928  -10.29721662707175   -0.86659430406567
C         -12.64589914659426  -10.35034645643289   -0.04136570025471
C         -13.17856291251313   -9.07703235210120    0.23301503446465
C         -12.52594737114862   -8.04232900068244   -0.38220123611315
S         -11.20615223589048   -8.64513408374888   -1.30957958100123
C         -12.83214535881462   -6.59305393318807   -0.31545211976735
Cl        -14.54146495390478   -8.83382744322111    1.25480553049923
C          -8.52238942082704  -10.27078951248738   -1.17499327317127
C          -7.19594494567841  -10.52380848734846   -1.42506046724856
S          -6.96122579826268  -12.04199334125995   -2.24067107811860
C          -6.09011669156552   -9.66945503825503   -1.14320776994387
C          -4.77782679432244  -10.04422893056371   -1.49135779170188
C          -3.65725069485027   -9.17389538794127   -1.31194233372037
N          -2.43478154836123   -9.58183336877022   -1.69772747639294
C          -2.29067453627929  -10.75392986545819   -2.23407816004472
C          -3.39961877379415  -11.62058522466029   -2.40189665690336
N          -4.58761422028830  -11.26487141329509   -2.02994998878443
F          -3.25029342787582  -12.83223361478540   -2.92464943853439
F          -1.07049751314734  -11.11968800604256   -2.60910752244624
C          -3.78983438426596   -7.87354778488646   -0.77454633815875
C          -5.09730936826661   -7.50494184782735   -0.38181733956635
C          -6.22801357030415   -8.39379914418412   -0.55352070691247
N          -7.35647567950549   -7.84476262481756   -0.10002642112148
S          -7.04124825160300   -6.37773349899330    0.47949256827769
N          -5.46395468409145   -6.35178279949805    0.17948430149726
C          -2.67127610701941   -7.00386732615480   -0.68054678688654
C          -2.69467739547439   -5.66747721311276   -0.34281363990645
C          -1.43420373776574   -5.05222664699421   -0.38165421120366
C          -1.12473744135295   -3.69823055691860   -0.08767986412296
C          -2.14567167620259   -2.70803558435013    0.14733285445348
C          -2.10615604357490   -1.63046176468948    0.99172052323575
C          -3.26450103063791   -0.83310206235679    0.91176611213206
C          -4.19309608691282   -1.26719981205986    0.00468669864747
S          -3.63825284591837   -2.70981627484965   -0.76088061393093
C          -5.49903077081213   -0.66046661912450   -0.34722805526657
Cl         -3.49120810434840    0.57306319210704    1.87612589750488
C           0.22370332514848   -3.37206899132939   -0.08629629966587
C           1.25804791397039   -4.30032078556427   -0.38011653268000
C           0.94660275628208   -5.64326690694774   -0.69207093441480
C          -0.40575484345877   -5.97103956893495   -0.71087322676740
S          -1.06193330020052   -7.55390305808131   -1.05550550052871
C           1.95998920663034   -6.64211915194784   -0.94041051423387
C           1.90651133272308   -7.71874035195032   -1.78283075488640
C           3.05507344577503   -8.53182135664221   -1.70484166969003
C           3.98958812587235   -8.10727841873831   -0.80119632415688
S           3.45252897681285   -6.65622185097481   -0.03306106649219
C           5.29376843169604   -8.72460455988589   -0.45495330931189
Cl          3.24777898903813   -9.94227825258965   -2.66884400198743
C           2.53203362727407   -3.66017719241391   -0.42050319020910
C           2.47213478671550   -2.36473448357430   -0.04974470307794
S           0.89816470462397   -1.78505095207124    0.24649296132843
C          -1.15554124657441   -6.63478992302653   -4.50003371842355
C          -2.58784959607018   -6.61737187055577   -4.03961315109641
C          -3.38826645586484   -7.73151956752215   -4.26466245238027
C          -4.71747871978339   -7.65559815658950   -3.89612628186549
C          -5.25637349446170   -6.48915030458122   -3.31911482648486
C          -4.44154563786922   -5.38776410167916   -3.09812895132443
C          -3.10711801335482   -5.46225369797783   -3.46138095417679
C          -6.67865889502769   -6.68588522651652   -3.06791458676762
C          -7.52747938631690   -5.76807160286219   -2.51491048516577
C          -7.14605606666406   -4.47726364058383   -2.08681290984408
N          -6.91824102159968   -3.41598815053732   -1.71447244394258
C          -8.90541034915739   -5.97424327595678   -2.28967372090842
N         -10.02937092866656   -6.04586234124258   -2.07071190212783
C          -7.02627704493165   -8.02477037249922   -3.53434481670321
C          -8.20859815515903   -8.65227064038802   -3.56463742809526
C          -5.77792520797789   -8.67369839510826   -4.04096782507314
O          -5.67403812667406   -9.79363678534507   -4.48187469883370
F          -1.05543851187617   -6.27182936447342   -5.79304545737140
F          -0.59160507016361   -7.84341612474434   -4.40421487734771
F          -0.37487391403425   -5.78659942592120   -3.81450037383875
H         -17.69739670190332  -12.79996632843511   -3.52987175755125
H         -16.05853459353134  -13.77403149170233   -1.98906787868011
H         -14.13482335295535  -15.84313143704433   -5.21439900839763
H         -18.42570467237522  -13.43991422401484   -9.18998592728212
H         -17.01878190321935  -14.56023605506848   -9.58621120059855
H         -11.26599867818765  -15.64709990778806   -3.19387579730589
H          -6.83491300908223  -13.58427883238411   -4.16528640118212
H          -6.07351988175011  -18.41487103467714   -4.18407048386895
H          -7.79089027037958  -18.80787865598566   -4.35816368657018
H          -7.06394044842183  -18.74673771290428   -2.75279801701410
H         -13.03236454310393  -11.25125836390165    0.39719936785717
H         -13.82152240676348   -6.39729357877875   -0.72827347819872
H         -12.09287387443391   -6.02796945376617   -0.87483433790807
H         -12.83409377309939   -6.25751171798799    0.72130728021361
H          -8.83893997569531   -9.39164441935796   -0.64779811663456
H          -3.60576027689135   -5.18076281909817   -0.05104257494690
H          -1.30365841501600   -1.43035385644116    1.67668044091468
H          -5.92473445986399   -0.16736662453917    0.52439152592506
H          -6.18464827699205   -1.42020697471711   -0.71265074261783
H          -5.36984793119006    0.08911846285867   -1.12950312027482
H           1.10344773612101   -7.91911074015712   -2.46555844408743
H           5.51301954497468   -9.52911542367621   -1.15225643419037
H           5.26826781895684   -9.13327042911051    0.55556156499929
H           6.09211265324308   -7.98545777872658   -0.49635642867306
H           3.43971203625846   -4.15618572995086   -0.70708313430450
H          -2.99195435097539   -8.62612953967150   -4.72034679264262
H          -4.81875041893540   -4.48131022190506   -2.65655175217597
H          -2.46333628551947   -4.61161358205759   -3.29850903164354
H          -9.12840270423216   -8.21788532253349   -3.21800189689073
H          -8.25481692461984   -9.63741353283180   -3.99917262142710
