71
 SCF done       -149.400261492554          0.000664679698
C          -0.85768028123568    0.04988565645218   -4.51312563882793
C          -0.19740040687889   -0.26763330617815   -3.33088488654775
N          -0.50503505235428   -1.34104675690666   -2.62955310536976
C          -1.48302890693601   -2.12592826065017   -3.09815469061756
C          -2.13722412664199   -1.79914371231669   -4.29514238991347
N          -1.82485982977580   -0.72310264260780   -4.98816122682772
C          -1.81751292305951   -3.28585992795271   -2.31283689098552
C          -1.22278328307266   -3.66254982029583   -1.12717318450225
C          -1.79726357795153   -4.82266780082197   -0.60425198722729
C          -2.83608832839973   -5.32524315590099   -1.40940465191067
S          -3.09875378214181   -4.37660623366664   -2.80131523003727
C          -3.38086432289207   -6.47995648297025   -0.79238612619504
C          -2.68170570025161   -6.70374938624187    0.41181064544755
C          -1.65763500135593   -5.67925895183911    0.56054513273720
C          -0.75820350291839   -5.55890963921243    1.57857010772541
C          -0.72597819828227   -6.46858448064718    2.65668100799748
N          -0.69831352912356   -7.20817898124728    3.53257601324024
C           0.20101039768747   -4.52486651593622    1.62555748338758
N           0.98821783922484   -3.69314990127842    1.67638227213164
C          -3.16335718690826   -7.79933726647032    1.11668770316025
C          -4.21964627411524   -8.40803127495285    0.45061163054356
S          -4.61792050732133   -7.62419402891394   -1.07183943338304
C          -4.98245626440313   -9.51584824857145    0.85536577192505
C          -6.01802287533400  -10.08924679488996    0.11011830356993
C          -6.66430848403657  -11.18837998991262    0.77210606249075
N          -7.71310878306107  -11.79485778635441    0.21074043474725
C          -8.09337451095415  -11.36170119506423   -0.97127983038719
C          -9.30031952851074  -11.99580747901338   -1.56177969615448
O         -10.00397022099345  -12.76320899529549   -0.94261238793645
C          -9.59450135523710  -11.59520266345426   -2.94964629724867
C          -8.92344782389583  -10.64173464495174   -3.60407655685419
C          -7.80406251381756   -9.88338975986525   -3.02003313930769
O          -7.24536130335914   -8.98478144478651   -3.61415203588636
C          -7.40560845447651  -10.30863522972975   -1.65588835623720
N          -6.39090499848942   -9.68070483272791   -1.10147917397137
C          -6.10536831699404  -11.46375964957335    2.02781848830140
S          -4.80851586793206  -10.35118648312248    2.36491896157698
C          -6.51487826105552  -12.46240417106057    2.93102324457355
C          -7.42702616468781  -13.47970580463300    2.67378558753501
C          -7.62420313797991  -14.28371450654759    3.78949299187212
C          -6.87846141196304  -13.86872106232799    4.91079780663015
S          -5.90004037615916  -12.51054493149343    4.57889995336071
C          -7.19497038147818  -14.71393317387125    6.00128460560193
C          -8.13703408590990  -15.66797492583955    5.57481107887700
C          -8.41307458365467  -15.45094666941131    4.16445019987537
C          -9.19390761000432  -16.21345072180079    3.34876545783235
C          -9.92036969915431  -17.32509663875667    3.82871484588049
N         -10.52244508478191  -18.22255897537496    4.21072047828171
C          -9.29063181031379  -15.99306340940644    1.95645838047636
N          -9.34606086913193  -15.87075470767913    0.81851338923922
C          -8.51555652347410  -16.54240609136211    6.59571740726516
C          -7.87592314231445  -16.25559906321253    7.78264891808811
S          -6.78191045483353  -14.89378361752828    7.64725780410371
C          -8.04742017177576  -16.95300195455507    9.03063960930396
C          -7.37157309860501  -16.59375797092247   10.20593077865646
N          -7.54753336651599  -17.24504054870728   11.33758547153162
C          -8.39532176199944  -18.26472669100584   11.32963615341305
C          -9.07097806892534  -18.63039050582376   10.17008508932888
N          -8.90103518602435  -17.98424055911877    9.03341458575794
H          -0.61653698186362    0.92953077965982   -5.09212097424145
H           0.59557742806332    0.34929385684687   -2.93126025454648
H          -2.92812557544126   -2.41994552867405   -4.69595399176588
H          -0.41965171324984   -3.09806838702555   -0.69047047046768
H          -2.79105406955623   -8.15406699822208    2.06110139604574
H         -10.42324198870563  -12.11683379478850   -3.40895928744309
H          -9.18529571522889  -10.36274054863951   -4.61588156730741
H          -7.90814466535767  -13.58364781273288    1.71779660780605
H          -9.21935089461181  -17.34985679486255    6.51227479535128
H          -6.67703349838100  -15.76372594704558   10.22883299904681
H          -8.52799705597874  -18.78743286743293   12.26575144890571
H          -9.76531223287090  -19.45888118942591   10.14585235878963
