105
 SCF done       -213.550415441181          0.000191387434
C           1.91171241692159    0.13542917855977   -2.07940651057573
C           1.16015488506417   -0.37964624659797   -3.12932319371839
N           0.27632093337545   -1.34204553975995   -2.94711615690083
C           0.12616340462357   -1.81255238030448   -1.70388111602386
C           0.89046879096907   -1.28636090927483   -0.65287805306607
N           1.77060480957333   -0.32395275031471   -0.84333355306423
C          -0.83880993197397   -2.86775164693591   -1.51125286806971
C          -1.60968347794634   -3.44268375497057   -2.47710026568303
C          -2.46210320935965   -4.46359448955519   -1.99236622134973
C          -3.40644033815192   -5.22720930111421   -2.71165194715178
C          -3.57830152351391   -5.11482936218073   -4.14530085167905
C          -4.73814869162277   -5.21852359091542   -4.85969374037612
C          -4.53147103377013   -5.14003419459574   -6.25333222179010
C          -3.22622967227978   -4.99264181139071   -6.62402568342504
S          -2.21685345538609   -4.93307333378997   -5.21996424126184
C          -2.65104720160344   -4.88967208375789   -7.98877929316713
Cl         -5.83005660008707   -5.23086941933557   -7.37912910508474
C          -4.15724968311239   -6.14130105047266   -1.97926555872686
C          -3.98765070139691   -6.33721752419970   -0.58545148569148
C          -3.07128479978545   -5.54749825679908    0.14523889263173
C          -2.31834646808738   -4.64114053339891   -0.59183969004729
S          -1.12853886704322   -3.55316788381653    0.06761859802857
C          -2.96198884487821   -5.68271436277171    1.58050439451974
C          -3.97313058880802   -5.89866614146893    2.47539198806747
C          -3.51327617072194   -5.98886997734178    3.80522234871023
C          -2.16311363133526   -5.84617230212625    3.94788725236140
S          -1.42822740170883   -5.58531538136963    2.40222152085489
C          -1.34951193758727   -5.88441157654941    5.18884911284725
Cl         -4.58309220362335   -6.26105590600068    5.12778619034149
C          -4.76678596753104   -7.41104142617680   -0.11074314263580
C          -5.54541195561122   -8.00040155240100   -1.07554510783158
S          -5.34614502012733   -7.24008561954016   -2.63399793597731
C          -6.42162456163002   -9.11157569379792   -0.89292664093765
C          -7.22951041608511   -9.59573356337223   -1.94284563790353
C          -8.10948059450059  -10.72428337611257   -1.80424775315580
N          -8.82392331202258  -11.12839543051841   -2.87889711006837
C          -8.71916246265881  -10.48556843537702   -3.99440612162187
C          -7.86834187880390   -9.35678331967638   -4.12523348773939
N          -7.15708810460081   -8.95147094471323   -3.12613216942193
F          -7.77621557019525   -8.69146736758414   -5.27198555573751
F          -9.43688308470299  -10.92495622274478   -5.02619891410245
C          -8.21513107189959  -11.43192921527118   -0.58751415138400
C          -7.40063791997718  -10.95571500448707    0.46139297117162
C          -6.53128687322103   -9.81074567184383    0.32878449435050
N          -5.88497775652235   -9.55682186150944    1.46981347902992
S          -6.31615863631210  -10.63474308105644    2.57721679972129
N          -7.34113878624184  -11.48219691924497    1.68523684594922
C          -9.04862298546474  -12.57698480142960   -0.39445990666995
C         -10.05287773289919  -13.04282701940993   -1.20306892637344
C         -10.64537725620566  -14.23759611445100   -0.74500963316014
C         -11.68242216216312  -14.97706208042113   -1.35516953444265
C         -12.23710168968435  -14.57145140119427   -2.62882312389541
C         -11.57561885248488  -14.09103032957408   -3.72387310049766
C         -12.44351237816646  -13.77879272644547   -4.79201825567143
C         -13.76447425787664  -14.00470718825099   -4.52921831828538
S         -13.95357428549012  -14.63642557870573   -2.92912545134419
C         -14.93870535445768  -13.78173198433495   -5.40927399051485
Cl        -11.86731877195440  -13.16036567843474   -6.29159989281925
C         -12.12399047422057  -16.10187536137283   -0.66782927215571
C         -11.55180127016964  -16.54231255751559    0.55249683008492
C         -10.48644673945240  -15.82571618956189    1.13636872133224
C         -10.08001773567657  -14.66943947796523    0.48237039080374
S          -8.82424774755214  -13.58736334359472    1.01754436802079
C          -9.83936302744616  -16.30009979469938    2.34329785018046
C          -9.48767061419157  -17.58214748475453    2.65491816966314
C          -8.85990867010619  -17.68206304785971    3.91535657075882
C          -8.73183927078802  -16.49596557071331    4.57741533726991
S          -9.39016027458254  -15.20863733674163    3.62391241733754
C          -8.13696474189015  -16.23569911435125    5.91281149888903
Cl         -8.30464928735931  -19.18536806397631    4.54754475859923
C         -12.19238471390112  -17.70658078359044    1.04094265542139
C         -13.18462760992446  -18.16544466503156    0.22696168097811
S         -13.39443065573417  -17.17175397656817   -1.19354049938764
C         -14.00482767959496  -19.33122475617682    0.45310410334024
C         -15.02475747743040  -19.72045836444788   -0.42636668442159
N         -15.75649123840176  -20.79594200223496   -0.21405286642605
C         -15.49526897316999  -21.50435827013529    0.87616679244566
C         -14.49266302830843  -21.12265700233949    1.76014714047121
N         -13.75246800862292  -20.05025764433331    1.55264160305336
H           2.63693777137412    0.92408666639411   -2.21989592234308
H           1.26468556047331   -0.01572285332908   -4.14245756378465
H           0.78433511731449   -1.65511629714417    0.35894198562648
H          -1.55759689461897   -3.11845206398919   -3.49906008999521
H          -5.71262265023976   -5.31552600134409   -4.41957269316629
H          -2.00522211609382   -5.74226503738045   -8.19856172192928
H          -2.05307794022503   -3.98457505428754   -8.08655113034878
H          -3.45350063702847   -4.86766154639319   -8.72181236229116
H          -5.01240447581690   -5.94749401158665    2.20962183442068
H          -1.99554647704365   -6.05673277258941    6.04609328622110
H          -0.81994726948546   -4.94250116598381    5.32779847451772
H          -0.60773310125398   -6.68063222374121    5.13784470632199
H          -4.73984253504411   -7.77955365832486    0.89667783148985
H         -10.36416516516128  -12.52067731343370   -2.08582927938950
H         -10.50772637350756  -13.99901140154883   -3.79178405753582
H         -15.64541001968069  -13.09775100977871   -4.94070557563029
H         -15.45812748899787  -14.72019587320112   -5.60058633383121
H         -14.61017778906949  -13.35973093881966   -6.35556948797424
H          -9.62765800449374  -18.42182416596791    1.99975251097764
H          -8.88582857095273  -15.83373364520122    6.59458102437030
H          -7.32867576634315  -15.50957633254590    5.83680645550103
H          -7.74500254853970  -17.16154326352347    6.32639432711153
H         -11.95591691964519  -18.18827621512028    1.97085557144038
H         -15.24796627025670  -19.14781582355307   -1.31694646581325
H         -16.10077164576518  -22.38525337315363    1.03443631493620
H         -14.27116765855739  -21.68725767585655    2.65565752509218
