75
 SCF done       -141.709645260405          0.000255099626
C          -3.56573296499355    0.96350630645219   -5.20354093448189
C          -3.63613846690298    2.14433921411903   -4.23219221221416
C          -4.92970069371212    2.93767692202059   -4.43761852989791
C          -2.42163657941283    3.03367412170890   -4.35502375040415
C          -1.82785867273428    3.79601712760188   -5.35120140645251
C          -0.67333285446315    4.41965363792166   -4.91410140241408
C           0.18701376873728    5.25501353267712   -5.70474010740826
C           1.36100145843106    5.83738880572719   -5.19917053705180
N           2.14945906338398    6.58248086775910   -5.94479273954172
C           1.79184451002485    6.77324852257348   -7.20901210249406
C           0.62721653496840    6.21272296398267   -7.71859115688879
N          -0.16775502927171    5.46107199649099   -6.98103680616601
S          -0.31847072552340    4.06457536627365   -3.23928600880787
C          -1.71851439781057    3.07765748416607   -3.14888662103574
C          -2.36884778640557    2.26221887398247   -2.19624476282213
S          -2.16844806789800    1.77535618727996   -0.56234309261173
C          -3.59975835726872    0.77152809069770   -0.68524966310368
C          -4.03982161437957   -0.01346952855094    0.41184033355003
C          -5.15049382318384   -0.89118456367754    0.33930119100078
N          -5.92667595787269   -1.09277463610502   -0.72523858026974
S          -7.05824744081490   -2.17357727095543   -0.36489830521000
N          -6.63044700682597   -2.44920261411434    1.15807515263789
C          -5.57048525207378   -1.70116881670474    1.46351522308735
C          -4.90771016218870   -1.65990640707528    2.71573025153262
C          -5.30865907166106   -2.44061680541492    3.83079159265243
C          -6.33618733240583   -3.38152112507537    3.86789794256356
C          -6.48095859324298   -3.95500289427421    5.11574914487761
C          -5.56634460479944   -3.45377252438309    6.05031383606615
S          -4.50762975282347   -2.27998194152252    5.38117187026301
C          -5.80918492519317   -4.07832123208674    7.29381080545059
S          -5.19028875166166   -4.02038665080768    8.89257869303523
C          -6.36737976881642   -5.21176994428374    9.39435562833236
C          -6.44412590386659   -5.66854426953992   10.75396685798451
C          -5.59395432867312   -5.19711279282971   11.76778078443611
N          -5.68707795210761   -5.61917556711962   13.01119198001632
C          -6.62394742765184   -6.52032655656469   13.28082119817582
C          -7.46869689015407   -6.99805783339039   12.28669342561255
N          -7.38466075083073   -6.58071863051715   11.03785952367842
C          -7.18137678144965   -5.61873440846150    8.35290995752018
C          -6.86939155626621   -4.97807208825090    7.16203250703131
C          -7.38775675440306   -4.98757000444887    5.74348346722823
C          -7.19944585613738   -6.36082776339651    5.09252032597092
C          -8.85484336732914   -4.55601393838913    5.68069835939261
C          -3.81105133061415   -0.77190936137773    2.78196523422185
N          -3.14066756657175   -0.67717652824649    3.94665713885856
C          -2.12683781604459    0.12049918297257    4.04304050033786
F          -1.49261465485014    0.18599821830607    5.21185628036238
C          -1.70478554271737    0.90029049423832    2.93726743677652
F          -0.66020035758016    1.72016870668197    3.03374130738201
N          -2.32409272807427    0.83730517449897    1.80324500729851
C          -3.38628517502516    0.02050040232850    1.66380523560936
C          -4.18526766803580    0.84801885653612   -1.94769939255412
C          -3.49536249165828    1.68851737041983   -2.79874386199312
H          -3.59455390921587    1.32157645437990   -6.22954783763854
H          -4.40749610995185    0.29580644074377   -5.03824507391633
H          -2.64382394049492    0.40636403199020   -5.05384950432848
H          -4.97574695067406    3.31995146147694   -5.45425836521354
H          -4.97189464192652    3.77669155392574   -3.74687645837316
H          -5.79017073864622    2.29721467328887   -4.26129217161612
H          -2.18143320083513    3.91465562679605   -6.35850315507493
H           1.66262594712737    5.69029773585213   -4.17034097823028
H           2.45152898058778    7.38302668684904   -7.80939210634909
H           0.31891316992581    6.36530582005403   -8.74430351082816
H          -6.92798552037604   -3.60432394975912    3.00033180592721
H          -4.82696596695006   -4.46227442949640   11.56084340109579
H          -6.68919759757326   -6.85533540018663   14.30597298295886
H          -8.23508408038614   -7.73395436361319   12.49044618089353
H          -7.95620767195917   -6.34792816481547    8.50006185298824
H          -6.15534281818647   -6.66143882269586    5.14028603526351
H          -7.50413729002302   -6.32297306289968    4.04973641889954
H          -7.80043482087980   -7.10450180385385    5.60978487104013
H          -8.98314671092468   -3.58500026637456    6.15328203538842
H          -9.47964222622122   -5.28055843893673    6.19678491572552
H          -9.17728499861444   -4.48512191351103    4.64501555303997
H          -5.07259268498572    0.29523840099290   -2.19188311076385
