79
 SCF done       -163.973092520554          0.000735293828
C          -0.19309126675485    2.51848011207837   -1.39750578465311
C          -1.40831937113053    2.23603134662687   -0.77476615337217
C          -1.94415280153795    3.16110420700789    0.15518666828351
C          -1.28664603889911    4.34030547042754    0.45926732366069
C          -0.08464353533618    4.59588262190362   -0.17100215562599
C           0.45435997617097    3.69398657099294   -1.08864492627761
S          -3.45027488321547    2.56408523076792    0.77525207358587
C          -3.23465127759338    1.13032432000881   -0.25982988216577
N          -2.16192786647186    1.12637201825445   -0.96982800602913
C          -4.19939374737064    0.08630482249238   -0.26625095142735
C          -4.14480776165085   -1.07397507086773   -1.01622351803950
C          -5.25136457235492   -1.89039079134371   -0.78331375298151
C          -6.14523720164418   -1.33830945286290    0.15425001375677
S          -5.62668514013659    0.17716832440563    0.74226701246717
C          -7.22631285685905   -2.23175366218223    0.33008225025435
C          -7.02609843926190   -3.35509507092733   -0.49757716629224
C          -5.76066691857834   -3.18735783688007   -1.20190637636945
C          -5.14975532209812   -4.08264624288484   -2.02720402548725
C          -5.66223156705904   -5.37616955964680   -2.27387146461640
N          -6.02583899525541   -6.44803404154900   -2.45213871707997
C          -3.91782535771289   -3.80225499122364   -2.65817208529912
N          -2.92044430196693   -3.58597810786418   -3.18038185206962
C          -8.06074070434790   -4.28049972865304   -0.42164688027711
C          -9.04088655468281   -3.87872871704833    0.47864594886392
S          -8.67224419405307   -2.33008294536562    1.22953083171854
C         -10.21726574535063   -4.57381913796930    0.81484070713941
C         -10.73213317874931   -5.72564812691766    0.20345560027287
C         -11.95374040772007   -6.18766483086415    0.80904071785158
N         -12.60113297382497   -7.25205634655020    0.32867340665424
C         -12.07851872593377   -7.84714823944599   -0.72039330827106
C         -12.82034203638369   -9.00738384400605   -1.27962111137615
O         -13.93657190617059   -9.30605143230058   -0.91715416566602
C         -12.10050642419530   -9.75177831442569   -2.32963671814612
C         -10.96403598010358   -9.32532757600806   -2.88901170832572
C         -10.29986256060864   -8.06118842713297   -2.52068499557238
O          -9.38057236887462   -7.59753615537134   -3.15817545185780
C         -10.86330793738620   -7.38961511323101   -1.32040334713335
N         -10.20868707811324   -6.34924801768836   -0.85470287916829
C         -12.37064008586926   -5.38906585852803    1.88339312099685
S         -11.26205789954325   -4.07249669673752    2.10702603383057
C         -13.50528432792666   -5.57014182616645    2.69590515056189
C         -14.35562221628948   -6.66988158682215    2.70943268686868
C         -15.36741099032180   -6.52125305817074    3.65094974284229
C         -15.30523277788470   -5.29533043939455    4.34376941925839
S         -13.97866709321863   -4.33843858257215    3.86095979154290
C         -16.39171785441750   -5.22404832078913    5.24719903747543
C         -17.14535769830548   -6.40806473016137    5.13215406327971
C         -16.51286215283917   -7.27274002301032    4.14952451190598
C         -16.87789247569430   -8.54300190661818    3.81767421587604
C         -18.01750925749963   -9.16064431777328    4.37745137163674
N         -18.94355504354957   -9.66636647782982    4.82579788296418
C         -16.12445413973489   -9.35870588948002    2.94426411184822
N         -15.50792265342263  -10.05998750485064    2.27995090143779
C         -18.24252991123800   -6.43087644353053    5.99401399054521
C         -18.32018791768590   -5.27797542689646    6.74944861395784
S         -17.02996091655503   -4.14484656438642    6.40690573877966
C         -19.28413894628872   -4.93097350486193    7.73184845421609
N         -19.27290118793518   -3.83030714065369    8.39843070671837
C         -20.30145321218911   -3.74816417935500    9.27791496182746
C         -20.55678761107089   -2.68290293343387   10.14025066967119
C         -21.64735125191345   -2.75388006199040   10.97800339138244
C         -22.48965712594457   -3.86584068324009   10.97355501381220
C         -22.25842683775733   -4.93353211560270   10.12872462913863
C         -21.16426203781480   -4.87138007395605    9.28316538005619
S         -20.61723228886918   -6.04161211269672    8.12274930966155
H           0.21123154250634    1.81219882446746   -2.10422679049712
H          -1.70600956402642    5.03560388987467    1.16959497351210
H           0.44574265664824    5.50923617435676    0.05159355740348
H           1.39610229540050    3.92482931616453   -1.56301794815515
H          -3.33104313195675   -1.28053114817773   -1.68620807945904
H          -8.14024092955278   -5.19966214745257   -0.97423137554430
H         -12.57996714427176  -10.66612146511670   -2.65208295433510
H         -10.48323341386905   -9.87957471831907   -3.68369585060451
H         -14.21282294337479   -7.50629656814610    2.04872279025301
H         -18.95470968230410   -7.23215026847781    6.07774638162938
H         -19.89709607815878   -1.83035018521574   10.13260819954645
H         -21.85690777568999   -1.93655456146570   11.65134385558857
H         -23.33691076992431   -3.89341712770530   11.64166954848251
H         -22.90792112585068   -5.79470482028541   10.12319562015390
