59
 SCF done       -135.734549367106          0.000923431458
C          -7.71164895649478   -2.77203529515028    2.73627677257431
C          -7.02526148010543   -1.60591294706983    2.59065686389552
C          -5.82473464203255   -1.76816573155341    1.87957273418724
C          -5.60478817073054   -3.06701162731853    1.48584403846614
S          -6.90534616486420   -4.09823383479174    2.00721206996178
C          -4.50064584419789   -3.58772036017382    0.74636344232753
C          -3.43771201095224   -2.89424343877799    0.21823126671480
C          -2.52720757264039   -3.71727398881052   -0.46109677444668
Cl         -1.19470174198836   -3.06221686152009   -1.31735991766980
C          -2.86414319604234   -5.05654353982299   -0.45719180700732
S          -4.36895395876803   -5.28304790256189    0.39179343846763
C          -2.23074908508866   -6.18919752920166   -1.04961732437232
C          -0.89041258443358   -6.51678334704166   -1.16020488760046
Cl          0.38969620615555   -5.61023118584814   -0.46593027000843
C          -0.65960404089494   -7.73135052511059   -1.80899566583763
C          -1.82103873996809   -8.36841129077528   -2.19886242513024
S          -3.22079165453833   -7.44467445447474   -1.74550539565511
C          -1.93879156982036   -9.61664197819787   -2.87127514377821
C          -3.20145077787833  -10.16940912652252   -3.17642239882925
C          -3.37486975805877  -11.43833402151728   -3.83033805957862
N          -4.62774965836421  -11.88141666715978   -4.06602480211087
C          -5.63992449168027  -11.16353335090414   -3.70380551090629
C          -5.47084895664208   -9.90858219159050   -3.06532110809610
N          -4.28650897566534   -9.45070507967857   -2.82349740808682
F          -6.51577589294240   -9.16969177332484   -2.70546304837544
F          -6.85699807784741  -11.64381389248442   -3.95739418978618
C          -2.26528068534143  -12.22026596843842   -4.22761703318127
C          -1.00103045588394  -11.65757245555475   -3.94042742327236
C          -0.82690975485744  -10.38924613784005   -3.27457984333121
N           0.46484571393054  -10.09408827830244   -3.11863225221438
S           1.36006125623262  -11.27365034637236   -3.73806938136895
N           0.16735729456396  -12.22452106490005   -4.23745386582706
C          -2.35223828286846  -13.48802150949773   -4.86674054745249
C          -3.47430115275007  -14.22380754994496   -5.19881256387073
C          -3.16850250150812  -15.43373967226689   -5.81224859844869
Cl         -4.37872317754628  -16.53816203893334   -6.32054393663980
C          -1.80680567711394  -15.66813568526123   -5.97716271124962
S          -0.89905219083075  -14.32666715547333   -5.33465925260741
C          -1.18089144917761  -16.79617539314885   -6.55757725295922
C           0.17468612285185  -17.03236907105956   -6.74157772917111
Cl          1.38920740219601  -15.92076715245261   -6.26875399033318
C           0.47464662788560  -18.25636085757075   -7.34545855398709
C          -0.64823375716999  -18.99673828850564   -7.63794984662161
S          -2.09116083767988  -18.15493974581286   -7.16320143041661
C          -0.71173885941708  -20.28592616686643   -8.24199607707612
C           0.32408402258025  -21.04599086327997   -8.73379260552089
C          -0.09934694778307  -22.27833385888416   -9.25681416241792
C          -1.44527466072526  -22.45630429069528   -9.16072917092555
S          -2.22995177640786  -21.11532775154702   -8.43471532833080
H          -8.64888155042994   -2.93308363888096    3.23056909368641
H          -7.36639024669795   -0.66276351754787    2.97793394508177
H          -5.14586447026605   -0.96356286923257    1.66585056453242
H          -3.31381618222986   -1.83063298996941    0.29635181564374
H           0.31671891883295   -8.14468631073658   -1.97969854518863
H          -4.47382305869127  -13.89003366663602   -4.99912695646371
H           1.47872812039172  -18.57673956225429   -7.54849156055555
H           1.34882527369318  -20.72314847858430   -8.72338651427147
H           0.56715187261882  -23.00506790212194   -9.68544984178207
H          -2.02766315390999  -23.29870782003627   -9.47617293277900
