69
 SCF done       -144.127959943700          0.000689156311
C          -6.35946501833684   -1.43946533820535    5.14384250999955
C          -7.39832498865281   -1.94495603736376    4.42399565833483
C          -6.99141841399393   -2.91241889192956    3.49126721157634
C          -5.63538364188848   -3.13810845909336    3.50876472397173
S          -4.85520083042017   -2.13358036069652    4.70000644769218
C          -4.88355061822729   -4.04748942611868    2.71434250699878
C          -3.52328024733195   -4.28224183980803    2.76166174483986
C          -3.13031157023262   -5.25965870438183    1.84553168122489
C          -4.20324916320291   -5.76867459225608    1.09350199467797
S          -5.69175384880337   -5.04357849036664    1.51399054552141
C          -3.71687694192394   -6.76501966753403    0.21240736441571
C          -2.32534351648920   -6.88785174708681    0.41261922423512
C          -1.91261511183175   -5.93906733920046    1.43556540956281
C          -0.64907054292033   -5.72913409425777    1.90460042390242
C          -0.36468743238076   -4.77273004501644    2.90192799579467
N          -0.12658917708337   -3.99560044851111    3.71043266874926
C           0.45965065269381   -6.45365395898282    1.41898708753237
N           1.36292238016083   -7.03962341852060    1.02446017222405
C          -1.75090549081079   -7.86554903794627   -0.38934084262229
C          -2.69611326308950   -8.48023271410668   -1.20064048422740
S          -4.31780877728811   -7.83619976479550   -0.97468279262923
C          -2.50590413852254   -9.52171031489236   -2.12354549920683
C          -3.50414326476905  -10.07444229732138   -2.93202356725825
C          -3.04164575137112  -11.15695771588144   -3.75918022888907
N          -3.90175346217848  -11.81592715054042   -4.55443174284384
C          -5.14219518979327  -11.41265006011136   -4.54182498991199
C          -6.19532867703321  -12.23599243425874   -5.32002735879216
O          -6.42533646111427  -13.39399488372667   -5.17653974919332
C          -6.87176937697522  -11.06624292094758   -5.86577260692213
C          -7.67154648116588  -10.63492726934713   -4.82984100249526
C          -7.01263065876761   -9.73622857540992   -3.86596756296506
O          -7.46329622219964   -8.90979348193514   -3.12099890998600
C          -5.58573415973180  -10.25994903791223   -3.78878703577431
N          -4.76386967947473   -9.63894625550598   -2.97708846439236
C          -1.68243507681980  -11.42848446505391   -3.58336562168829
S          -1.00364086877615  -10.34470066822218   -2.39737197189453
C          -0.93137639010839  -12.43997693249926   -4.21400406737608
C          -1.37375888618673  -13.28039401617285   -5.22693558814224
C          -0.39362851045365  -14.19041359472821   -5.60444996887628
C           0.80135835717590  -14.05516865225837   -4.87105428973188
S           0.72514561535811  -12.78583416794631   -3.73140478010156
C           1.70929103221165  -15.05168872166617   -5.30179807205519
C           1.09567187587565  -15.81785862201237   -6.30727718702410
C          -0.23704079426114  -15.28941732588930   -6.54714944655193
C          -1.13909088791556  -15.70753234507298   -7.47978333132678
C          -2.38081774800005  -15.06350478241221   -7.67226569427022
N          -3.37921013097875  -14.53244194827017   -7.85966774718731
C          -0.87615584343979  -16.79296239145398   -8.34248845354169
N          -0.66627068435082  -17.67558901218627   -9.04356785794086
C           1.91585985567966  -16.84230953826465   -6.78572329890187
C           3.14197425297540  -16.86300642703635   -6.15229597794427
S           3.29221586377258  -15.59186674291809   -4.94851933481122
C           4.21814741422500  -17.76791828215133   -6.36842540208415
C           5.44066873166175  -17.80243059603507   -5.74099495357836
C           6.26390447809102  -18.84296070344370   -6.20104443242498
C           5.67095765471120  -19.59248837429682   -7.17007365238850
S           4.08936576410198  -19.04544164333404   -7.54632555018686
H          -6.38546375663957   -0.69542297020548    5.91481613870874
H          -8.41935751983459   -1.63625153202843    4.55710588995858
H          -7.66079121481977   -3.43121723490593    2.82820212014567
H          -2.86798884772395   -3.76299711345890    3.43766285479453
H          -0.71071153800805   -8.13804064417797   -0.40230260688537
H          -6.24697939934404  -10.33959107084153   -6.37578699192320
H          -8.37823359200443  -11.31987878495812   -4.37565801645302
H          -2.36698370090355  -13.20957715332557   -5.63063479051685
H           1.64696098793549  -17.54761054126606   -7.55133230567245
H           5.72520851261165  -17.09995451990234   -4.97767351748349
H           7.25499161991477  -19.02904891673716   -5.82864155077054
H           6.06900245958447  -20.44053279098633   -7.69068307733697
