69
 SCF done       -146.730657601240          0.000839049815
C          -4.36159996385538   -1.14620198919553    5.60770699423497
C          -5.51598072103033   -1.49504021450180    4.97564032115726
C          -5.32672743641327   -2.50707656211996    4.02162547114109
C          -4.01921329391178   -2.92472428262451    3.93408110803451
S          -3.01207769986725   -2.04698469253108    5.05282383472766
C          -3.47139746474612   -3.92502105529044    3.08536203944039
C          -2.15722716865505   -4.34786983493783    3.01719059234816
C          -1.98201634080806   -5.35699692584470    2.07004535130513
C          -3.17608871193128   -5.70223019704559    1.41022498370106
S          -4.50931965396888   -4.78470845526617    1.95868527003118
C          -2.90801761497623   -6.73101180346142    0.47887545378325
C          -1.53300630166655   -7.04299059648896    0.55118508298267
C          -0.90823966309262   -6.18697423426478    1.54768905592524
C           0.40608030830702   -6.16484207805688    1.91130000477761
C           0.89829862932539   -5.27954412968099    2.89339965630729
N           1.30303662242304   -4.56092221309580    3.69020986018308
C           1.36392765618053   -7.02236956587849    1.32957023095093
N           2.15255564833820   -7.71247832646749    0.86429360839294
C          -1.16495747682131   -8.05459142027624   -0.32335096754123
C          -2.24457114774730   -8.51696475527306   -1.06873202723358
S          -3.73934258263673   -7.67667110402069   -0.67755338789831
C          -2.23322031261695   -9.54287648828490   -2.04509850111058
C          -3.40761230864380   -9.88547252247833   -2.75195381944154
C          -3.43279579826972  -10.92547673463184   -3.74931761870236
N          -4.57452460109523  -11.19821889798166   -4.38739682423403
C          -5.66452828930615  -10.52324902793138   -4.10527471952635
C          -5.64022371214340   -9.49250863959129   -3.11266647580991
N          -4.52728164652293   -9.21048161929407   -2.47621285443573
C          -6.81455871132070   -8.76370545669836   -2.80532142762277
N          -7.77915206979556   -8.18915396482638   -2.57757340775536
C          -6.86301988251696  -10.82841621716718   -4.79443874927586
N          -7.84633132294549  -11.05194024198850   -5.33766543734766
C          -2.28720604151075  -11.68207748199739   -4.08331260112449
C          -1.10698265078908  -11.34145547528882   -3.37813783334920
C          -1.07983548500273  -10.29242300931224   -2.38295564359845
N           0.13577954875852  -10.15204267834521   -1.85581385580859
S           1.13747193996058  -11.21027078947561   -2.52682811909371
N           0.09052521937704  -11.90757181750288   -3.52237202555853
C          -2.35091966770537  -12.70640358468564   -5.05925200316812
C          -1.31752111318812  -13.54329328451983   -5.46762373812563
C          -1.72933851462175  -14.43884290408718   -6.44328738072862
C          -3.08958144781160  -14.28416309340935   -6.78835054253712
S          -3.85789627595162  -13.04006590837890   -5.90254753390390
C          -3.40278737715454  -15.23680182834974   -7.78424618925416
C          -2.25321479230296  -15.99569918502277   -8.07208075911542
C          -1.16321656060827  -15.51968648461335   -7.23534311206829
C           0.11627579497436  -15.99055212162668   -7.19684307455982
C           1.09370717232123  -15.44888919800712   -6.33517314705035
N           1.89759265540099  -15.01854517684326   -5.64001191029775
C           0.54846624163672  -17.05555415917112   -8.01502459271616
N           0.90385446313424  -17.92125725517131   -8.67776400012935
C          -2.47340282753131  -16.96486809962825   -9.05099608300285
C          -3.77703073701256  -16.94946998374267   -9.51011634766718
S          -4.74939398707056  -15.71829331809264   -8.71978573761028
C          -4.35942160312398  -17.78775742908696  -10.49951185808885
C          -5.65266801185619  -17.77885361278049  -10.96771141384828
C          -5.88582970862092  -18.75192217006693  -11.95205565570472
C          -4.77871436273984  -19.49437004619351  -12.22964083011741
S          -3.42114183795316  -19.02285935616187  -11.29415951175421
H          -4.22042157310370   -0.40858795828182    6.37237707423592
H          -6.46844271599242   -1.04338272769908    5.18605575248973
H          -6.11340822731083   -2.92187314677488    3.41676340361256
H          -1.38166171964910   -3.93175319835987    3.63483219032211
H          -0.17775567192782   -8.46198236751771   -0.44178257021566
H          -0.33031528774090  -13.47108896302874   -5.04958264079986
H          -1.73622364273979  -17.65374005894853   -9.42263234924708
H          -6.39844280145601  -17.09199519436146  -10.60863127088296
H          -6.83498704642917  -18.89675060669020  -12.43540292495575
H          -4.67691831394787  -20.29689207932133  -12.93271386612317
