67
 SCF done       -137.700386373795          0.000714354942
C           1.63498858606211   -1.41500728578256    5.40554423103345
C           2.67403058907241   -2.25384357579155    5.14436448634163
C           2.33407552160790   -3.27294281866908    4.23947003219753
C           1.02880476760447   -3.20125385402169    3.81545930883314
S           0.21165763882126   -1.84961602064359    4.55113848105011
C           0.34959985404769   -4.05680520500450    2.90400961677835
C          -0.95883875291161   -3.96576096553881    2.47543185589074
C          -1.28434034613293   -4.97550459424173    1.56679730411548
C          -0.21038199617943   -5.84376915533071    1.30444834096901
S           1.19564537319575   -5.41568603976569    2.17650596900615
C          -0.62571941981009   -6.82192560552035    0.36883744801697
C          -1.97224624744075   -6.56846627468737    0.03788728898619
C          -2.42889729644262   -5.40402855167770    0.78080332265610
C          -3.66795512214397   -4.83398975593719    0.74208981123499
C          -3.99523097968228   -3.69627057530869    1.50899956781931
N          -4.26896346266682   -2.77062388880853    2.12856181916278
C          -4.70771442025052   -5.33908871096606   -0.06650971239663
N          -5.56460593894270   -5.73551793549646   -0.71760827479252
C          -2.47932662297644   -7.46599474929891   -0.89144735714397
C          -1.53474760089760   -8.40789330537117   -1.27979916312878
S           0.00833840451916   -8.17163741648760   -0.46430145621597
C          -1.67525090338718   -9.45912377261941   -2.22409957913260
C          -2.86185783649068   -9.71872198526916   -2.96075512913290
C          -2.91278728696926  -10.77071866460105   -3.93426765231740
N          -4.04382549437194  -10.98732036072637   -4.62865536821815
C          -5.08786477762792  -10.23865960949426   -4.40573743567547
C          -5.04014381149741   -9.21051961984972   -3.44515789804310
N          -3.96056241198980   -8.96778258593349   -2.75459427912084
C          -1.81530823401308  -11.61668697887305   -4.22644751736339
C          -0.64534944424502  -11.37874339077865   -3.47492944733636
C          -0.58974194258797  -10.31817393105841   -2.49930848644076
N           0.60475038641124  -10.25518194949692   -1.90780054780987
S           1.55487233157305  -11.40446104274726   -2.50825903928789
N           0.51241363615474  -12.03820865882506   -3.54610903351448
C          -1.91457470181167  -12.61232922776296   -5.22886667155316
C          -0.92158397399422  -13.49785569464090   -5.62933421880806
C          -1.34660841181393  -14.32131983187467   -6.66267787471735
C          -2.67627020109079  -14.06386989370746   -7.05425299923050
S          -3.40210395981663  -12.80850394434764   -6.14028839182825
C          -2.99471585942024  -14.93999373702102   -8.11984118089745
C          -1.87856762470023  -15.74610936236719   -8.40400253894902
C          -0.80582574002120  -15.38738694791810   -7.49148956101777
C           0.44259510074411  -15.93379174646845   -7.42533071343026
C           1.40782387485271  -15.50226626661479   -6.49126739899190
N           2.20557224862001  -15.16481314726910   -5.73954817569101
C           0.85549754636433  -16.97105822595010   -8.28725782662179
N           1.19896399377459  -17.81451008962162   -8.98449313691244
C          -2.10074688814039  -16.63272361007987   -9.45971886594529
C          -3.37311075785939  -16.50948685407709   -9.98012977283530
S          -4.31549194552464  -15.27906304998000   -9.15010480534602
C          -3.94563884536062  -17.23575904512332  -11.06106931909246
C          -5.21311634534101  -17.13012849198354  -11.58154005531252
C          -5.43836403238409  -18.00199308050848  -12.65947839772339
C          -4.35038730201014  -18.76335355612954  -12.95552653647345
S          -3.02032316654902  -18.43454139654775  -11.92241043669035
H           1.61674590747034   -0.56076504143467    6.05249985671075
H           3.64937017361977   -2.14641855136308    5.58358409951436
H           3.01484244302291   -4.03534426087508    3.90441815435489
H          -1.62778785818028   -3.19555038165155    2.81515043928383
H          -3.47528334624584   -7.46701379886529   -1.29287304386528
H          -5.97536834608820  -10.44766169812256   -4.98569751356524
H          -5.89426128189821   -8.58065054826523   -3.23930560165034
H           0.04992328817387  -13.50829384128106   -5.17054460192093
H          -1.38319220405959  -17.33576609555845   -9.84316331054001
H          -5.94718069169594  -16.44639402098247  -11.19393953184019
H          -6.36896552094887  -18.06224520746650  -13.19419818807916
H          -4.24604231116755  -19.50346051938310  -13.72361338740016
