71
 SCF done       -167.474321429740          0.000374564603
C          -7.43679526149437   -5.32468406866841    5.00707810447415
N          -7.74712337602628   -5.26558820125412    3.74113516621108
N          -6.89008686486729   -5.54928360072812    2.79521838840016
C          -5.64481196370541   -5.91904840673708    3.03894016751182
C          -5.19195983839465   -6.02043623730282    4.38526689637517
C          -6.13991294317356   -5.70550931468960    5.41326302206388
N          -5.61387408412566   -5.83088425971272    6.63177823366949
S          -4.08539629356398   -6.29716140939332    6.48580643556440
N          -4.00720858747091   -6.36499997319024    4.88109404214671
C          -4.81048528216087   -6.19614084986428    1.91366112000411
C          -3.48694276270340   -6.59069245865375    1.90296941502524
C          -3.01657439345845   -6.75417887857530    0.60172639396223
C          -4.00109398880763   -6.47849520092897   -0.37170746628516
S          -5.49599153030326   -6.02266584827254    0.31270456446443
C          -3.42866547221759   -6.66175081853602   -1.65411670183486
C          -2.08305183469795   -7.05324503267241   -1.49211739687735
C          -1.78307103800504   -7.12474965333038   -0.06918247041990
C          -0.59709057005570   -7.46215139250518    0.51331328130668
C           0.54962897063276   -7.80328680374161   -0.23597901382838
N           1.49311622976374   -8.08146499505133   -0.82458536656839
C          -0.42990300725129   -7.49206295193869    1.91442909449716
N          -0.28194733716577   -7.51900925316863    3.05120136747518
C          -1.42786865370773   -7.24826678422726   -2.70007318564295
C          -2.25776847631456   -7.00791903528289   -3.78980178846171
S          -3.87947511148651   -6.53688909628254   -3.29484962271466
C          -1.94795192324826   -7.08051043906397   -5.17595964442200
C          -0.68307563800379   -7.43948480095803   -5.70236661321543
C          -0.43642873013973   -7.45427428863347   -7.11735911441503
N           0.78584964221053   -7.79479790143570   -7.57434845834190
C           1.72288216945049   -8.10884807554171   -6.74127974768054
C           1.47762599511514   -8.09978032004368   -5.34271492042775
N           0.32096290258818   -7.77544711262318   -4.86513436686172
F           2.43456041742805   -8.42746417661385   -4.48397760093229
F           2.91129363364376   -8.43850205047705   -7.23394496495855
C          -1.41364608985646   -7.12259632411188   -8.08329696122617
C          -2.68446753538862   -6.78721744205707   -7.56215904402015
C          -2.93232225907821   -6.77027342599221   -6.14239551308753
N          -4.19048988484851   -6.42399046456096   -5.86716921320414
S          -4.98033605921619   -6.15090667382758   -7.23835846339545
N          -3.77741444475300   -6.45239175628370   -8.25012249168091
C          -1.12173830538931   -7.11865040239980   -9.47282995733721
C          -2.00002278837267   -6.79431300850503  -10.50173159130305
C          -1.39201890331170   -6.86935410487863  -11.74631854758980
C          -0.03734209160203   -7.25643427941875  -11.67036588544511
S           0.47893150122942   -7.52728703327946  -10.06467485600341
C           0.48982357796528   -7.29227434772121  -12.98503534218347
C          -0.53119266148933   -6.92670564729169  -13.88977587146349
C          -1.74460109378584   -6.65245557484043  -13.14139659428519
C          -2.95752584456399   -6.27044727995857  -13.63610339319105
C          -3.18453155603756   -6.08871713938824  -15.01680635630296
N          -3.38031563482641   -5.93677121744196  -16.13646770927184
C          -4.06904750079715   -6.03054633927134  -12.80080172508639
N          -4.97913175932233   -5.83184401473906  -12.13193057664362
C          -0.09960925060420   -6.92475179333491  -15.21458591360816
C           1.23046082773307   -7.28507464808354  -15.31010250750463
S           1.96882631525730   -7.63387442015279  -13.76225948514558
C           2.03965353563991   -7.39733764776868  -16.48141944792654
N           3.29601456613927   -7.77270993539999  -16.31558910281674
N           4.13582715841237   -7.90995165216238  -17.30799349826852
C           3.79695248863020   -7.68388566210484  -18.54752572625932
C           2.48563958530641   -7.27485882100866  -18.87174351230219
C           1.55517819061263   -7.12264788092385  -17.79194655457136
N           0.35479745790576   -6.73437979624943  -18.21213817533135
S           0.39966394536568   -6.57804249712742  -19.81219796994113
N           1.93163166397455   -6.99151080991987  -20.05070665269067
H          -8.20877792834500   -5.07172413092721    5.71666864679883
H          -2.92243964861361   -6.74104043590413    2.80554258614280
H          -0.40317242080511   -7.54635559853096   -2.81638850833553
H          -3.02163366251219   -6.52005502391259  -10.31389877607115
H          -0.69471056868822   -6.67895726004867  -16.07566004683299
H           4.55715207804815   -7.82263181940270  -19.30004251056667
