73
 SCF done       -165.534316604628          0.000374053384
C           0.02449950652406   -6.00405926846361    5.88186887589578
N           0.72590206417543   -6.30161522605539    4.82276205019126
N           0.17436771238135   -6.54761494581807    3.66307636904199
C          -1.13178075296379   -6.51627156023788    3.46564280304453
C          -1.99963551723547   -6.20057726139039    4.54962680220164
C          -1.38353198634752   -5.93273046331925    5.81589285303857
N          -2.28314600358910   -5.64848484093346    6.75774096937800
S          -3.74784067283176   -5.71458423138539    6.10586622143075
N          -3.32486948310333   -6.10456509451902    4.60394887345905
C          -1.60366701197712   -6.81090892222581    2.14980343027875
C          -2.90794880810653   -6.86244395761565    1.69886337357339
C          -2.96341318425806   -7.19569995984473    0.34684619032230
C          -1.68490973346713   -7.39272095731889   -0.21825028551046
S          -0.42401463980867   -7.17104226016682    0.90817876034719
C          -1.84430966127251   -7.73412687937153   -1.58498150327067
C          -3.22452226756854   -7.75600534478199   -1.88034041786109
C          -3.96866965608556   -7.41344311729714   -0.67659661241944
C          -5.32304276563053   -7.31766126783362   -0.54347523914943
C          -6.19899498299969   -7.55549042576928   -1.62361764790416
N          -6.91149018794596   -7.74708235136368   -2.50137771047380
C          -5.93892209975491   -6.97443357101788    0.67878662911493
N          -6.45066848588689   -6.69733219923977    1.66666192262707
C          -3.48759478712397   -8.09567845980411   -3.20044363540813
C          -2.31432841111195   -8.32851304225690   -3.90872218513609
S          -0.86743155074190   -8.12109398708047   -2.93111893696559
C          -2.16880482760063   -8.70477773765875   -5.25410169727105
C          -0.94443510303148   -8.90563042399843   -5.90102488103480
C          -1.08932689709321   -9.30443347015643   -7.27075937713501
N          -0.02785372790468   -9.54100392072939   -8.03996598947379
C           1.15552741319061   -9.38745781192126   -7.48348355744795
C           2.33950212083359   -9.64633571904095   -8.33967055097120
O           2.24410546902754   -9.99108659067181   -9.49892383900875
C           3.64071097641364   -9.45225507419240   -7.67768886763614
C           3.77584555343439   -9.07738798845643   -6.40119088943448
C           2.64003018713292   -8.81399871339026   -5.50139915130591
O           2.79013602446730   -8.47958620275595   -4.34493281554007
C           1.30033736973435   -8.98710786082244   -6.11535610243669
N           0.25715512053072   -8.75460789475470   -5.34630333081980
C          -2.42480290905735   -9.41049339693478   -7.67463547077809
S          -3.48275487730776   -9.00694284799653   -6.35370822329493
C          -2.84789999958165   -9.80248898315831   -8.95528177791942
C          -4.14720878804275   -9.93695422782593   -9.43080004075843
C          -4.16260591679934  -10.36624251529048  -10.75093432863365
C          -2.86783377987023  -10.55845454551646  -11.27949226690316
S          -1.62965859546340  -10.20725054443095  -10.15722655995899
C          -2.99363155630497  -11.00653696316412  -12.61860681662233
C          -4.36651112724248  -11.09636989880300  -12.93452702734307
C          -5.14283015662988  -10.69437119913881  -11.77634793222312
C          -6.50142746039009  -10.63477086437631  -11.66769801694569
C          -7.13892953587216  -10.22324165393245  -10.47823541728663
N          -7.65842795690942   -9.88877732649605   -9.51232065880290
C          -7.35983760511041  -10.97782487433956  -12.73378720044646
N          -8.06734298707825  -11.25475146622806  -13.59249540821579
C          -4.59059908684263  -11.54131152793395  -14.23600238975109
C          -3.40137204344639  -11.78469578963751  -14.89463617824148
S          -1.98636946995656  -11.46485662042979  -13.91607055085703
C          -3.20742580152556  -12.25457821230710  -16.22977913493123
N          -1.96211028798919  -12.40948482537324  -16.64334344278685
N          -1.65672833727795  -12.83465972864319  -17.84155166451466
C          -2.56426610637353  -13.14267678605278  -18.72675275624827
C          -3.93713803509078  -13.02660835265148  -18.42042534846807
C          -4.28414900286137  -12.55952321995026  -17.11041058976497
N          -5.60022930763805  -12.49031904112629  -16.93270000000495
S          -6.32456977089898  -12.96799882253517  -18.28674867187701
N          -5.01603417547171  -13.28434027763340  -19.15979042897488
H           0.56598106238186   -5.81766685222528    6.79596348073523
H          -3.74896251262224   -6.66608783745085    2.33923910316153
H          -4.46200566806140   -8.17787710337675   -3.64786904085686
H           4.50311980351523   -9.63683876688647   -8.30396121290161
H           4.75196868428357   -8.94644491059521   -5.95388841176855
H          -5.01143413261432   -9.72915436532683   -8.82550922926137
H          -5.54906985775817  -11.68965149219494  -14.69995968818153
H          -2.21852901454288  -13.48552515634301  -19.68922759861928
