67
 SCF done       -143.466314933327          0.000852022187
C          -0.42878360620486   -0.75709638242522   -3.49505476699870
N           0.10164997118759   -1.57225507498344   -2.60969268891404
C           1.22128619305036   -2.18750117990056   -3.00795447988476
N           1.78601534383510   -2.00902812340582   -4.20909232731720
C           1.15883950013729   -1.16974513725003   -5.00339545282930
N           0.04823331089001   -0.51245796821416   -4.70660326937073
C           1.86148896408898   -3.09427909410896   -2.10637139261513
C           1.46661037386353   -3.44269212579939   -0.82977340723316
C           2.34339141436086   -4.36419191862616   -0.26165767799692
C           3.40683692498788   -4.70649720125793   -1.12566910231878
S           3.32409161747803   -3.89872463408129   -2.62378167538747
C           4.24061031176106   -5.64745767719633   -0.47192407136995
C           3.70171416953612   -5.90145096410208    0.80495823715508
C           2.49784477493065   -5.10209106431668    0.98023003532035
C           1.69330551506101   -5.05626143213489    2.08061257061267
C           1.95238771415567   -5.82510407501031    3.23538758663250
N           2.15341558876831   -6.44286432632827    4.18027780832320
C           0.54703525241175   -4.23558640065442    2.14445218521651
N          -0.38668114437368   -3.57362001123972    2.20896318624677
C           4.44636719072762   -6.82278291716888    1.52951128979847
C           5.55156636167206   -7.27095464173432    0.81656511475357
S           5.67152177098262   -6.53892711054639   -0.77290706342519
C           6.52208732140115   -8.21234965441033    1.24763694265359
C           7.61492257180651   -8.55455618821899    0.41726235125048
C           8.61490232097916   -9.49592812863659    0.81730460602081
N           9.63311117440086   -9.77559661280019   -0.01441847095725
C           9.69074961922774   -9.18397501390433   -1.17495994333363
C           8.70357176931692   -8.25855057630373   -1.57047797795566
N           7.70380496523723   -7.96401458458290   -0.78695946509744
C           8.57618118774079  -10.15583040939947    2.06790756581312
C           7.48644186892267   -9.82161079599294    2.90166604156079
C           6.47804909984981   -8.86461248224565    2.49942080937794
N           5.54979219383895   -8.70886306206127    3.44644732988447
S           5.89669706086514   -9.64854778963401    4.69524123069555
N           7.23649208634904  -10.30889271353056    4.11938251155667
C           9.58430598675432  -11.08791067126615    2.42675707915429
C           9.66609640656353  -11.81944800389942    3.60525149327531
C          10.78618277198196  -12.63990980253306    3.62864371126861
C          11.56629227086297  -12.53191323193347    2.46024860612616
S          10.91305888199848  -11.42199310287919    1.33151621936469
C          12.67750020000693  -13.40196899858849    2.58730551204645
C          12.59876063889681  -14.06056231311093    3.83416713147936
C          11.40644253069943  -13.60304598582901    4.52677546773737
C          10.95688657171847  -13.99171981842781    5.75442303773165
C          11.63980360065918  -14.94253718481315    6.54248387226678
N          12.18424972676248  -15.71478796430613    7.19139731612148
C           9.77457243638008  -13.47134945968256    6.32281758810255
N           8.81504306396153  -13.05743300995258    6.79473657144815
C          13.65907002631354  -14.93941634741681    4.04401572891073
C          14.52785560152953  -14.94413317697625    2.97060464147438
S          14.04716832379755  -13.86299935532209    1.68447791316726
C          15.72623363453084  -15.70826573848808    2.81266266613731
N          16.41703465670923  -15.54582830457370    1.67692863393721
C          17.51064450707993  -16.26904061318972    1.57857221643363
N          17.95843103995233  -17.11612113788903    2.49261664431054
C          17.20372067340550  -17.20404127374784    3.57795928653633
N          16.09165718022173  -16.53715724940324    3.79762139138860
H          -1.33666269611592   -0.24167031312826   -3.20698980939688
H           1.58860184096779   -1.00218727291261   -5.98339228681485
H           0.58608873157716   -3.03190353563033   -0.37063246945738
H           4.22916031921393   -7.17358985282405    2.52155436369871
H          10.52570214395369   -9.43653697986085   -1.81245761163852
H           8.73715561557047   -7.76175887315879   -2.52933950146527
H           8.92878411666713  -11.73101549973717    4.38174826034090
H          13.81873967026765  -15.55174332744010    4.91260008691580
H          18.09430656216649  -16.16127813739755    0.67255758140709
H          17.52974221141934  -17.88570599140035    4.35379448807737
