69
 SCF done       -152.486838306047          0.000859696030
C          -1.48369799617351   -0.32485729181137    0.68819050365503
N          -0.47099824998438   -1.08744144369805    0.33550704183069
C          -0.08771743868342   -1.97730494384118    1.25690661869171
N          -0.66778692677128   -2.11208832134053    2.45553447345696
C          -1.67072747284481   -1.29320131135317    2.68714299578732
N          -2.12513606325554   -0.37759972935853    1.84577657908312
C           1.01199948929152   -2.84405871966119    0.95772603335556
C           1.76027108290099   -2.89730829526862   -0.20134194929543
C           2.75732120382230   -3.86694722910672   -0.11570457668372
C           2.74991088026193   -4.54432668976372    1.12329967485204
S           1.52317058291709   -3.99171859672746    2.17005979638133
C           3.80038612299054   -5.49480055580969    1.12583028742496
C           4.47142225233211   -5.41936032953448   -0.11208539638779
C           3.82967733403734   -4.40448564154603   -0.93569036403504
C           4.16090954304988   -4.05146986994188   -2.21013446691051
C           5.20923837139546   -4.68568484188103   -2.91242792003971
N           6.05084586020468   -5.20944684702188   -3.48778714723890
C           3.47045888701250   -3.04458016269817   -2.91836608974548
N           2.91535154956100   -2.22811723997160   -3.50073881844981
C           5.54247729912846   -6.29742224440297   -0.20036276559275
C           5.69720782463885   -7.05016872795111    0.95845604469580
S           4.47727239630570   -6.66492953332707    2.16687309968986
C           6.68678325978205   -8.02692627678895    1.25303702660931
C           7.78620378501064   -8.33282169484471    0.41135956535590
C           8.75662436509421   -9.33250335453945    0.78587224072694
N           9.77103881368575   -9.61691838272727   -0.03880173684972
C           9.90259273338789   -8.97331197726550   -1.17117343766647
C           8.96668409250477   -7.94556264904445   -1.52051416755074
N           7.95259361453809   -7.66690593091896   -0.74085034334864
C           9.15309382850123   -7.21076777115053   -2.72015696656695
N           9.36041585230181   -6.63905814980597   -3.68992538764278
C          10.97631974282471   -9.30361576775185   -2.03449207704467
N          11.83745165137261   -9.55213444160708   -2.74721737664647
C           8.70715510631387  -10.05136611925485    2.00387884863014
C           7.61132618022019   -9.74529939498776    2.84049074199623
C           6.63354262478024   -8.75547259540459    2.46292158409599
N           5.68975890939684   -8.61795995665102    3.39553482803445
S           5.99248836592691   -9.62024792990305    4.61264007774183
N           7.32929999001456  -10.27890106461973    4.03032413871152
C           9.71241743328146  -10.99248286128018    2.34138123122732
C           9.77810896893049  -11.75755512048628    3.50145145869535
C          10.91077227862590  -12.55785632615846    3.52918901209078
C          11.71712785505826  -12.40286702350878    2.38223066281433
S          11.07263931441508  -11.27793477216405    1.26819873739274
C          12.84685337906642  -13.24686291622393    2.51612263308253
C          12.75565717995748  -13.93430829597027    3.74694490150200
C          11.53486365021327  -13.52545073926668    4.42007917712872
C          11.06684954843793  -13.94962621119098    5.62877745176077
C          11.75647761306533  -14.89577073621268    6.41703399013215
N          12.30876559387265  -15.66064048183428    7.06813456242872
C           9.85655903370145  -13.47094259490286    6.17469827043356
N           8.87840731526048  -13.08261698325574    6.63008396322864
C          13.83845779975412  -14.78343374574105    3.96616056474420
C          14.73272518427112  -14.73500914962061    2.91495673740851
S          14.25264896762029  -13.64438088847046    1.63935208080633
C          15.96430042221766  -15.45175310159482    2.77039131925080
N          16.33893760047195  -16.28903433683473    3.74292789835978
C          17.48271058121730  -16.90576467393409    3.53312532761232
N          18.25633975006140  -16.75975296692203    2.46843921290101
C          17.79668312137952  -15.90836285588436    1.56439787618753
N          16.67225473640534  -15.23230640220228    1.65619599857465
H          -1.82066771938499    0.40974029263937   -0.03249804174400
H          -2.16356314432457   -1.37459056957387    3.64804251083874
H           1.56692735862809   -2.25253475790322   -1.03905499428240
H           6.19640332932657   -6.40357501157042   -1.04549946492847
H           9.02267275204995  -11.70282033805135    4.26357648934375
H          13.99639092084713  -15.40862075092831    4.82589449713138
H          17.81844225248992  -17.59326717279983    4.29946465991878
H          18.39558747521023  -15.75379648474511    0.67555006278396
