67
 SCF done       -151.911922678726          0.000314168356
C          -1.45695799926662   -0.17783262341225    1.21749757626300
N          -0.56634138640624   -1.06132015979451    0.82123654302858
C           0.02043292025198   -1.75155025311949    1.80515517337911
N          -0.25494713957251   -1.58438007360048    3.10446378951775
C          -1.16396958776133   -0.67201242291053    3.37090031862278
N          -1.80008947824127    0.06503029859021    2.47362703384571
C           1.00855108646141   -2.72805453760223    1.46069331246320
C           1.45726574129978   -3.07117986904082    0.20083450901843
C           2.44002846688932   -4.05696220769607    0.26429734647032
C           2.72573440104368   -4.45316152065016    1.58855812289562
S           1.78911295427323   -3.61974087787595    2.74343407975432
C           3.74190495311030   -5.44025556814738    1.55552366780914
C           4.09985419673164   -5.66789640873736    0.21146693376259
C           3.28488216529083   -4.81579011453441   -0.64306428162941
C           3.30096476835365   -4.75297281027080   -2.00459816555502
C           4.14990933803619   -5.56084151325730   -2.79248434284303
N           4.82462454065380   -6.21357738834656   -3.45000424753882
C           2.45737407891491   -3.88292473819252   -2.72873893151598
N           1.77800924720386   -3.18067383889306   -3.32823385806792
C           5.11453336303170   -6.60644784342524    0.07381114862902
C           5.53610803837954   -7.10441493904026    1.30082108464977
S           4.64149259595685   -6.39921509636933    2.64234243554115
C           6.55836076790893   -8.05616023815782    1.57630734703933
C           7.42755802171545   -8.61388540560762    0.60586482710516
C           8.44895489142861   -9.57009306768088    0.94346839670231
N           9.25717553510175  -10.03773899272956   -0.03307295975139
C           9.10652011116157   -9.62820487760306   -1.24841236208166
C           8.09535386039765   -8.68740279620800   -1.58256801222965
N           7.30304486801604   -8.21485894707888   -0.67895727994049
F           7.94259213990586   -8.25869605864074   -2.82792493770249
F           9.93190357405582  -10.10410744780819   -2.17068675619142
C           8.65685939665819  -10.02350845860724    2.26982126295277
C           7.80131168791670   -9.45164568571313    3.23581669215743
C           6.78143401780053   -8.49642220854329    2.89873475537485
N           6.10317519441602   -8.10135182507437    3.97762259837721
S           6.68121372777069   -8.84675530540516    5.27474227743878
N           7.81965407651339   -9.70893388986030    4.54484749916368
C           9.65059721505010  -10.96533789560526    2.65990851075683
C          10.51493114782387  -11.70359973897702    1.86059845740861
C          11.36192269731923  -12.50854114904972    2.61169349500240
C          11.15007528827372  -12.38310251050721    3.99943316082977
S           9.89173569563029  -11.29327228485227    4.37198325538074
C          12.07503381170459  -13.21969639296484    4.67226331486067
C          12.87134195006359  -13.87597235914777    3.70920985701510
C          12.44111999849045  -13.45941659283995    2.38472051775154
C          12.93321166625933  -13.88054153089927    1.18531289866648
C          13.98876371268797  -14.81313430586269    1.08991421085176
N          14.84685938253368  -15.56786724188248    0.99971516564350
C          12.41608833707769  -13.42927000426816   -0.04876678606136
N          12.00237596725300  -13.08399967156393   -1.06031576875563
C          13.82349388075794  -14.71532031440396    4.28412385470356
C          13.74733329085699  -14.69077013183789    5.66249222077156
S          12.49659856600635  -13.63464907571723    6.27091598504289
C          14.55929446527429  -15.40566714423563    6.59961960393960
N          15.51905735923095  -16.21036004924312    6.13042905331667
C          16.22573758079428  -16.82783264496734    7.05243400802496
N          16.05901754474145  -16.71255381290155    8.36143191943646
C          15.08293243012866  -15.89413066298655    8.72258593163868
N          14.30761645867841  -15.22032142977980    7.90127558773888
H          -1.95152155737905    0.40136178595202    0.44765188031197
H          -1.41155140475554   -0.51064715961603    4.41284083728166
H           1.07242383854953   -2.60896652550069   -0.68970097644966
H           5.54807812823460   -6.92843707524500   -0.85383730529827
H          10.50516628229006  -11.63280419192294    0.78959910187476
H          14.54344179570400  -15.31770729283622    3.76104273510596
H          17.01276794179467  -17.48767878573578    6.70910140813814
H          14.90729739353483  -15.76735409955605    9.78372126816622
