80
 SCF done       -171.562561466008          0.000891894490
C           2.43665739550943    4.13376450180191    0.56468060104126
O           3.21435310650878    4.67475112069647   -0.18166884202002
C           1.13565893405003    4.58702906962217    1.08670753808282
C           0.62556852095461    3.58107089825369    1.91417937783421
C          -0.59208114791344    3.72495059330436    2.54556004790806
C          -1.29405998762597    4.90822166855230    2.32983488047667
C          -0.78735400767590    5.90526504210327    1.51075650010751
C           0.44162034753235    5.75972012478685    0.87269444492597
C           1.58706599594399    2.45747332944473    1.94745597523475
O           1.52583227206039    1.41345103015346    2.53334035608354
N           2.64885423726454    2.86621829284044    1.11354241204642
C           3.79075437467180    2.13907625687364    0.82369422162540
C           4.13198784159414    0.89699234830180    1.29795929798345
C           5.36581630237747    0.48621650110746    0.77480406358502
C           5.93043042521627    1.43317749585227   -0.09264661852415
S           4.96477360657680    2.83582671697866   -0.27306933350450
C           7.16022283988730    0.92190851311281   -0.57589060039418
C           7.37897395991000   -0.34910177678902   -0.00725134921589
C           6.23650835473309   -0.67532317434961    0.83853140802867
C           6.00412262626172   -1.85044240961937    1.48766118722322
C           6.85836798451096   -2.97021070914050    1.37456817008810
N           7.50537204897872   -3.90867792242157    1.25641834891350
C           4.85531843458485   -2.06278715303253    2.28101992392652
N           3.93130075350895   -2.25426530562882    2.93178735539465
C           8.57971662413531   -0.92512054212576   -0.40099913469987
C           9.26874164150833   -0.11118849794429   -1.29403895668163
S           8.41536228290092    1.39283611853191   -1.62767249624611
C          10.49111079304730   -0.40873759392407   -1.92198123126680
C          11.34341227497553   -1.48781044570456   -1.64042067001448
C          12.47860656337707   -1.53862839136100   -2.52037979968154
N          13.39190453379526   -2.50617014106159   -2.43205616973253
C          13.22864232575240   -3.39172704142464   -1.47339026929196
C          14.23045117315431   -4.48340223424465   -1.38130878167784
O          15.17441079827694   -4.56993347453218   -2.13840051400643
C          13.98871509504941   -5.45881372327615   -0.30463433221319
C          12.98764022284247   -5.35829803207548    0.57582329891990
C          12.01061958164637   -4.25415174350509    0.58085277796983
O          11.18906876878180   -4.11765125838244    1.46106411965510
C          12.13230512391442   -3.30726522709570   -0.55610950756035
N          11.20446369441988   -2.37949787060647   -0.65847094780246
C          12.51101403823279   -0.49790990710911   -3.45239446229570
S          11.13683816738233    0.53931911285899   -3.22960951821418
C          13.48710621963313   -0.32508142085020   -4.44870476135468
C          13.57196564976084    0.69328244856540   -5.39000875886357
C          14.65412399513996    0.50844777752786   -6.24042034473587
C          15.39201773677095   -0.65817635441159   -5.94463180677098
S          14.76410949866942   -1.52020292700689   -4.60756829462714
C          16.44872811789702   -0.77410056521525   -6.88152311519997
C          16.37798567490870    0.32916012275171   -7.76510646719046
C          15.25512284674777    1.16970984757707   -7.38676090451675
C          14.84731502371129    2.32910495041153   -7.97939424604415
C          15.51562365754937    2.87600764644177   -9.09463721749244
N          16.05557028994710    3.32218832647593  -10.00255324511963
C          13.73211876188825    3.05626436002762   -7.51379492713890
N          12.82423634795009    3.64531608282387   -7.13417647197894
C          17.36700593540433    0.29137663437825   -8.73105559423885
C          18.19211451152011   -0.83033240617991   -8.60813542301575
S          17.71976283974275   -1.84623364613822   -7.24895816984864
C          19.25269161251615   -1.06799100544923   -9.50403889640767
C          20.14916305782231   -2.09751948153049   -9.59854133203360
C          20.20529384722155   -3.26584700543685   -8.71541645845887
O          19.47786773209930   -3.45503262399830   -7.76084900316577
O          21.16036514344786   -4.12148729009113   -9.08179213121450
C          21.29472416257324   -5.29062391688561   -8.28817321769094
C          21.10554093130856   -2.05285541845510  -10.63597235113156
N          21.87411552901917   -1.99680748974108  -11.48538661056636
H          -0.97937216509575    2.94447216742760    3.18122687501480
H          -2.25035645340437    5.05070224964284    2.80969118287693
H          -1.35524054333385    6.81134835839002    1.36376287698329
H           0.84222593274384    6.53062112530252    0.23351407058631
H           3.51805328367218    0.33618375302707    1.97819078756089
H           8.96998780757169   -1.87455336916288   -0.08076138376106
H          14.69677011449805   -6.27549191236399   -0.26101812500053
H          12.85397206695788   -6.08877266261159    1.36230127385703
H          12.86950248814652    1.50640189286892   -5.43155154311014
H          17.50379946687515    1.02573854637555   -9.50495685413565
H          19.36050559020599   -0.29027703887238  -10.25456341891153
H          22.08197213230062   -5.87833260768658   -8.75214842121996
H          20.35570370588608   -5.84801722720236   -8.27052446427433
H          21.56512852705494   -5.02482408074623   -7.26414587947252
