107
 SCF done       -199.442636397571          0.000829744055
C          -4.52412395947536   -2.12047192143626   -1.79437845678722
C          -4.76078449659777   -2.39142581783221   -3.11970274314847
C          -4.35627447193855   -3.57437434146368   -3.76940088110157
N          -4.06100956558899   -4.52041407833227   -4.34997910540682
C          -5.40807754638386   -1.51916680884548   -4.01788559995691
N          -5.90214152645367   -0.85779524539510   -4.81706039254639
C          -3.77765381564023   -2.96935397650190   -0.87339472083051
C          -3.65433965581373   -2.29115888626673    0.36454354429436
C          -2.99987417123070   -2.83582884801572    1.44222913983015
C          -2.43584336760239   -4.10696557141921    1.29205417880122
C          -2.56587240815073   -4.77626008235235    0.05279842332723
C          -3.23078621264584   -4.22711307262650   -1.03785183532551
S          -1.80049885405746   -6.33361862159747    0.09610892068957
C          -1.32084166048529   -6.07917903500359    1.73849271939695
C          -1.71232134879151   -4.88682968096481    2.23807151260519
C          -4.33594235367648   -0.98454695289501    0.27987908296262
O          -4.46763998378763   -0.18963322954492    1.19093505945169
C          -4.89303409563497   -0.91384724783755   -1.08759492768057
C          -5.78321485840661    0.03364194562837   -1.52263392870968
C          -6.10040842016040    1.25893761922725   -0.89907597114341
C          -5.18886283452129    2.05858794092141   -0.23684666556535
C          -5.74913642816912    3.20118303835213    0.42707784160693
O          -4.98997548585825    4.10160355417405    1.08882941279415
C          -3.60503890017778    4.01970274345363    0.79990015417437
C          -3.15385963911981    2.56457732709482    0.73579150387149
O          -3.85698025815336    1.86782482935447   -0.27647992252527
C          -7.12392065555212    3.33534396904299    0.34594953967508
Si         -7.83580493764772    1.99556446109616   -0.77137523958615
C          -8.45506746156767    2.62101537119183   -2.41926146407119
C          -8.99703425664393    0.79522973865247    0.06646226371642
C          -7.81175302946397    4.35859156478098    0.99574664693425
C          -9.19961910624788    4.56595869353273    0.90546174940574
C          -9.66470968287772    5.65682680146520    1.71251140663136
N         -10.95441381918545    5.96900199654130    1.77079526807984
C         -11.77826960382863    5.24286561425776    1.03664288313872
C         -13.21643483034295    5.56975436783714    1.11986109945180
O         -13.65285936499581    6.42109790360491    1.87525756811891
C         -14.08633804374800    4.78568879164850    0.23316323785479
C         -13.64196552562330    3.80393466912310   -0.56216077071404
C         -12.23340110255400    3.39516291837276   -0.63618931984010
O         -11.85527319237987    2.47739340581576   -1.34419794476630
C         -11.30821392381596    4.17742957426723    0.20729737008195
N         -10.02977453212209    3.84817428044029    0.15974429566745
C          -8.63368464823020    6.29844428726528    2.42305840288007
S          -7.10176298898160    5.53927315083016    2.06207788676197
C          -8.80567858360360    7.33805139425043    3.33655144549363
C          -7.74500969390532    7.84677492443411    4.06570665942921
C          -8.08584108411389    8.79845510990578    5.07425385600181
O          -7.14278666213086    9.36029399935817    5.85688254557937
C          -5.82727207134548    9.21095855016148    5.35786486323706
C          -5.58236553580244    7.76973484208317    4.92045821243808
O          -6.47846842202669    7.40525475452241    3.88606841978438
C          -9.43075024230027    9.11826978429046    5.19051727850325
Si        -10.40399941694939    8.20472842339223    3.84066064983877
C         -11.07229207302786    9.16270287664449    2.38154787957269
C         -11.70912554450395    7.13691598389775    4.64678292055365
C          -9.88396428606069    9.79457899905464    6.34191561281018
C         -11.05605703871860   10.47624800007875    6.52660603410823
C         -11.92258211400234   11.11071565611581    5.57187380657116
C         -11.50446416959155   11.65368176665453    4.38100692990721
C         -12.34725388905878   12.36081369993048    3.50433218773894
N         -13.00683551320845   12.93355114688321    2.75841696577505
C         -10.15155055084698   11.65641206395971    3.99143126567843
N          -9.05208671429453   11.73607464976521    3.66795859400398
C         -13.20497969673531   11.34312911788713    6.22544353293894
C         -13.05589793764760   11.06309182047230    7.60895307233419
C         -11.67848966721587   10.59001662101454    7.86584169363173
O         -11.17942760019386   10.30594157505082    8.93322862867152
C         -14.08378303668526   11.22727275755566    8.50433073337507
C         -15.31436526347533   11.67606984784376    8.01223361532527
C         -15.45393265053684   11.93987144510741    6.62929722373428
C         -14.41125972276068   11.78405083684823    5.72171991357217
S         -17.06112762949757   12.47395306940033    6.25121104043537
C         -17.52146541028338   12.34778792101256    7.91395581102583
C         -16.52433183144295   11.92387395026521    8.72025294080568
H          -2.92405953893215   -2.29736029138594    2.37439144026161
H          -3.30955782977878   -4.77969674680013   -1.95916050289469
H          -0.76719745178876   -6.85164435658057    2.23576944070377
H          -1.50514164398587   -4.55707909749017    3.24017578353743
H          -6.39334173026872   -0.20927587565537   -2.38455050765789
H          -3.40781401602459    4.51134519104810   -0.16223429376631
H          -3.09174827220490    4.55895525606638    1.59733706218700
H          -3.33977380300345    2.07023146958944    1.69722026151318
H          -2.09591385972357    2.49137720985748    0.48045043038225
H          -7.97203549049974    3.54284239035938   -2.73671773368907
H          -9.52482968014331    2.80989594194378   -2.36680791352680
H          -8.29870808493469    1.88862966069119   -3.20893220447076
H          -8.75417323265012    0.63134507908547    1.11493579214882
H          -8.98016967687401   -0.17724731525244   -0.42200197711079
H         -10.02114026237782    1.15635648031126    0.01417533204167
H         -15.13468453397292    5.04968422720645    0.26651533403960
H         -14.31767883305984    3.24598668169269   -1.19610196244361
H          -5.68543091732104    9.88609631710526    4.50410339476009
H          -5.15576149267080    9.49686391215677    6.16840103135332
H          -5.72253158638351    7.09563160021552    5.77621176166381
H          -4.57708032244058    7.64315811793748    4.51627831854981
H         -10.36793335676206    9.88514268419173    1.97406592915561
H         -11.98990131064091    9.69431332365013    2.62219573437234
H         -11.32564305310924    8.46438929352406    1.58660032342109
H         -11.29451122595554    6.27144605922818    5.15963014631548
H         -12.41259805671761    6.77025036327169    3.90227864998089
H         -12.28466415610214    7.69712453058335    5.38244166245218
H          -9.28894215465147    9.65908605848762    7.24160483052465
H         -13.94415619543502   11.01881122854190    9.55374436974496
H         -14.55899959637487   11.99301657123412    4.67470532408766
H         -18.52656954174991   12.60264336549543    8.18811595025795
H         -16.62550801641676   11.78568794044448    9.78156323754801
