82
 SCF done       -172.192269066897          0.000747692538
C          -1.78746348505716    0.18653807637111   -1.61276594050583
C          -2.14508366503680   -0.06338671112632   -2.91183901642304
C          -1.32051130688762   -0.73473990122847   -3.83963962817103
N          -0.69537412459812   -1.26910090630741   -4.64033537262577
C          -3.38799716042398    0.25403100280318   -3.50050424068247
N          -4.37567713041095    0.45781467633634   -4.04997992915917
C          -0.55020183074173   -0.25175540718540   -0.98192776906228
C          -0.63697486460192    0.01130370947096    0.40711986431668
C           0.37275560766833   -0.29955389393842    1.28591540954260
C           1.52803346735091   -0.89180806418452    0.76834982494158
C           1.61003332959209   -1.14414695868900   -0.62260683547133
C           0.58634518027426   -0.83485662834627   -1.51031930592592
S           3.12896388425167   -1.87247882169839   -1.03966456560777
C           3.62903549156807   -1.83612249913709    0.61564037353940
C           2.70820784409704   -1.30411909024126    1.44866289314802
C          -1.92977016530848    0.64667825041197    0.71299879941711
O          -2.32521398035049    0.94072304078406    1.82221464584769
C          -2.59684908938876    0.84810523270806   -0.59751714588594
C          -3.68043862941598    1.62723893145909   -0.89067049341645
C          -4.57204201368133    2.33175873761602   -0.05375027928462
C          -4.76496817343863    2.32889677979789    1.31732443568994
C          -5.78034695262753    3.19539279578891    1.70043578825869
C          -6.38793266836786    3.87885384380543    0.63170848401325
S          -5.69902844952963    3.42293355103404   -0.87168745008213
C          -7.38154731589832    4.76098473663578    1.06546994398121
C          -7.53159566754864    4.74153618511789    2.46091168446870
S          -6.45137392985364    3.62910391358285    3.24860063839622
C          -8.49629111100417    5.63136672522921    2.92988279329250
C          -9.08060458791237    6.33316234518081    1.89619648524242
S          -8.45358147407828    5.89205364539438    0.32462906209453
C         -10.05864576280516    7.35190944942904    1.98743764259009
N         -10.53701956266204    7.99730103526904    0.96674278485796
C         -11.40547491137741    8.92865923629383    1.35700059099313
C         -11.63286579426176    9.03489697193936    2.74052544727585
S         -10.68655966715619    7.87010868771732    3.57676275476884
N         -12.48042264115218    9.98277862630299    3.13555221410054
C         -12.94165094980920   10.64258298599130    2.11257547317441
S         -12.33759195097643   10.10586250823673    0.52443433076449
C         -13.84177993472547   11.73127439194340    2.22942341490365
C         -14.34434697162147   12.24419670330228    3.40810444863932
C         -15.18401514682985   13.33207202238325    3.17474712458823
C         -15.32544648928334   13.65124455049070    1.81592084919064
S         -14.40915737151927   12.58928639706659    0.81503452802557
C         -16.16920150391067   14.74566605425946    1.61644900098197
C         -16.66475177377634   15.26338273534888    2.82157817326227
S         -16.09392260544166   14.38931587244361    4.21411291203790
C         -17.49222846826897   16.37140116488424    2.65343419129620
C         -17.67634917026973   16.68726886516820    1.32204140723264
S         -16.75512684481187   15.62605013628129    0.26169829209734
C         -18.42089710147391   17.78631808179136    0.82019098972677
C         -18.91988948957933   17.97161021158252   -0.42779375998419
C         -19.11753779899440   17.05933717138582   -1.53746380441109
C         -19.47001911829280   15.73996926925490   -1.43461377466324
C         -19.76693190100513   14.91934615052107   -2.54110660385185
N         -20.00484136867337   14.21197098216370   -3.41297354315234
C         -19.66989938011087   15.09406986243383   -0.19648836407863
N         -19.88795242368068   14.55486594289384    0.79301656643108
C         -19.18006835353634   17.86449847702477   -2.74913780878718
C         -19.29033216499358   19.23109928206421   -2.37940118746306
C         -19.23629547083337   19.34758068773815   -0.91029898090982
O         -19.36174720213216   20.34041363649847   -0.23192882048525
C         -19.41225850572498   20.23387326888552   -3.31154788962568
C         -19.41331748478264   19.87399315380576   -4.66277064971074
C         -19.28752767671095   18.50871133692137   -5.01863464212573
C         -19.17395420352324   17.49151156738031   -4.07837314108393
S         -19.30164374991960   18.30380667539448   -6.74096843043040
C         -19.47916147345878   20.00937039014014   -6.96696811935158
C         -19.52317252677771   20.70760086448393   -5.81151187720033
H           0.27247606253459   -0.08911568612711    2.33942017720382
H           0.69951850023628   -1.04269288351804   -2.56108400015607
H           4.59826518916098   -2.22127017562394    0.86646087952489
H           2.84456786643266   -1.19943789718618    2.50979580322520
H          -3.89259717781174    1.77241770199219   -1.94397430070082
H          -4.18074621531524    1.73041716746032    1.99109707118956
H          -8.75658393302990    5.77066643790230    3.96292340686575
H         -14.09808388547078   11.83591647170930    4.36954896253814
H         -17.96853971488672   16.90478456864215    3.45512554348279
H         -18.53672525409700   18.62373656962644    1.50162206897696
H         -19.50434628661134   21.26494267869807   -3.00737985438842
H         -19.07302382236649   16.46470210903953   -4.38985805901975
H         -19.53997170939675   20.38932174647992   -7.96823254506390
H         -19.62929173300416   21.77588848655042   -5.75722004631393
