81
 SCF done       -158.727977682105          0.000430534415
C          -8.08953220897330   -3.76107826892553   -1.80906617731039
C          -6.77242492570540   -3.90341579511139   -1.45244194281744
C          -6.02415065443497   -5.08434389643457   -1.64170852173236
N          -5.35909588171080   -6.01150819018012   -1.76812157826172
C          -5.97986085304344   -2.91814184946478   -0.82753136369016
N          -5.27106931542156   -2.17720360179590   -0.31008654830534
C          -8.91986221922155   -4.80035208082768   -2.40627709930048
C         -10.24411377485161   -4.31018254298200   -2.53356692293118
C         -11.26484230198177   -5.06272675427384   -3.06290419426440
C         -10.96583251279127   -6.35824088421118   -3.49430084617794
C          -9.63933771851966   -6.83764403230677   -3.36930402060133
C          -8.60777303631707   -6.07880984701746   -2.82917770604591
S          -9.49744378043480   -8.45804457423373   -3.97359492582195
C         -11.17869418416947   -8.47997855518064   -4.37899085726880
C         -11.82391316943893   -7.33154566285010   -4.07903677644298
C         -10.30587328720776   -2.92498757268528   -2.03699835162296
O         -11.29309509462377   -2.22108447374193   -1.98428644400045
C          -8.91664349192960   -2.58218238539128   -1.63231359298323
C          -8.50140348938238   -1.34104678812956   -1.23239630408362
C          -9.34067787311920   -0.21595606618096   -1.10017865411136
C          -8.85731194395643    1.01800662523896   -0.76837577750136
C          -9.68030502928300    2.15800473982640   -0.67039179731870
C          -9.18494002795863    3.40458855129760   -0.42117854286546
C          -9.94370137435558    4.59942546173612   -0.35081561771323
C          -9.27559478160373    5.84409798082539   -0.18852915435869
C          -9.97803153302741    7.09741152001820   -0.18005625028307
N          -9.29425824424781    8.24540971591189   -0.04512104281549
C          -7.99197969627221    8.20704640799197    0.08253460088450
C          -7.29174569582379    6.95587366351639    0.08168196564109
N          -7.93959009805271    5.82646739232402   -0.05360765672092
C          -5.88198171603899    6.93347627255613    0.23306979447402
N          -4.74380898926152    6.95404937529937    0.35787902059146
C          -7.27771822151505    9.42294441001704    0.23143067966013
N          -6.67548590206145   10.38875730189770    0.35821254270124
C         -11.39111720432855    7.17947561244785   -0.31215313383413
C         -12.06273995721785    5.93850363083078   -0.41533209303626
C         -11.35391587625932    4.67777640699590   -0.44666522369731
N         -12.19535952495714    3.64923571107092   -0.56845856155696
S         -13.69965420045362    4.19413314468519   -0.63464449420839
N         -13.38150944772342    5.75867011642358   -0.51293985033839
C         -12.01169675630110    8.45247138086669   -0.37173550982077
C         -13.34910558348148    8.68716165869273   -0.48394324061848
C         -13.87290806359251    9.98734576435442   -0.64653848075245
C         -15.20609772882746   10.24958958656296   -0.74257795964570
C         -15.77591067334387   11.53369717220129   -0.92584944319644
C         -15.24906735043555   12.65035514036927   -1.50201885236085
C         -14.09349177184279   12.88982505131704   -2.34182819570646
C         -13.51045224024814   12.00426124773682   -3.21172609683915
C         -12.45502668442882   12.33857837603387   -4.08524325565847
N         -11.58965944087016   12.54849391086962   -4.80948489752005
C         -13.94393726892351   10.67822158397595   -3.40633345245956
N         -14.27012261466973    9.60219409703112   -3.63744292031058
C         -13.81909693312153   14.32230974490078   -2.30153250500766
C         -14.90271437702387   14.97779213698136   -1.66049424462877
C         -15.88076695997577   13.97224153829259   -1.21344940946527
O         -16.95252871496605   14.15375402864755   -0.68272043071513
C         -14.95326753187856   16.34327724389898   -1.51252633007222
C         -13.88367916133694   17.09443826178115   -2.00903145973912
C         -12.79858402364073   16.42873932202286   -2.63023929783416
C         -12.74901154886058   15.04840427511067   -2.78665055679067
S         -11.58799000161665   17.55395135417436   -3.15579952187073
C         -12.52609238692440   18.87881752537187   -2.55966277349926
C         -13.69188741736934   18.50459343297232   -1.98860307900998
H         -12.26272682774990   -4.66031259424026   -3.14404247169846
H          -7.61451331097382   -6.48943658182838   -2.75882459347620
H         -11.58631702322020   -9.36641252072460   -4.82486204305147
H         -12.87012131367979   -7.16346637441715   -4.26002571699995
H          -7.45090829475338   -1.18675139899360   -1.02017876487647
H         -10.39722883176634   -0.34258258921986   -1.28728692486546
H          -7.79557016559066    1.14039944172834   -0.58850993756112
H         -10.74275670529424    2.03063639189038   -0.82163586749688
H          -8.11856436123813    3.53483672860285   -0.28877208053738
H         -11.32708295517811    9.29044058654964   -0.34091908576250
H         -14.03739528335856    7.85492787256607   -0.49312740250406
H         -13.16584492502863   10.80769179891017   -0.67881433771611
H         -15.90054058640090    9.43288048416265   -0.59380063962569
H         -16.76642925479168   11.68178995696113   -0.50341820312085
H         -15.79396840612131   16.81687390863613   -1.02987852719513
H         -11.89902933280904   14.58467654936966   -3.25948612793294
H         -12.13966011965293   19.87280128385590   -2.67515417617171
H         -14.40193782669313   19.19058300573915   -1.56356775566175
