89
 SCF done       -192.837342015771          0.000521860936
C           0.20027371601273    4.42236321854565    4.00429766679065
C           0.81918242861056    3.21031720004254    3.83314740264408
C           2.17800556055786    2.96730300408243    4.12542317559626
N           3.27384657944980    2.70143102089646    4.34112420808363
C           0.21487281057998    2.03536318233593    3.34021455049249
N          -0.19753535540582    1.03795787069034    2.94634017564226
C           0.84405095939440    5.63347322365330    4.50187536074709
C          -0.10758413201788    6.68483911294276    4.51215335931588
C           0.19460671928834    7.95784725670200    4.93136441735778
C           1.50064268161796    8.20887421381240    5.36225900800643
C           2.44567544587377    7.15492180535368    5.34842050645674
C           2.13903335973978    5.86691335681384    4.92432254444965
S           3.99308882039351    7.69176730268650    5.92110889059672
C           3.37517927024674    9.28797299128111    6.16906555902530
C           2.07147677032391    9.42150004744647    5.84090249879869
C          -1.39441117313211    6.17471616803103    4.01855227358168
O          -2.42461784002151    6.81243295006240    3.89041606106908
C          -1.18514627916295    4.75120910974977    3.71833543955285
C          -2.14302632508163    3.88469041367230    3.26374153928952
C          -3.49320880018940    4.10592637599697    2.94187160602938
C          -4.30910368753811    3.06566223294032    2.48696269824813
C          -5.59104428819387    3.48945380062513    2.20134018614346
C          -5.78290799292336    4.86723026752522    2.43108113695822
S          -4.35744026680609    5.63559580657028    3.01749717042207
C          -7.08153068154221    5.27034510914937    2.11815181593875
C          -7.87522729834978    4.20721746171691    1.65310756655887
S          -7.02157555829651    2.68819512563070    1.60331204101538
C          -9.16736203709407    4.58274664618577    1.31708335656330
C          -9.38179656401486    5.93922516906676    1.51924225982397
S          -7.96226943670667    6.75473109809302    2.14331315869902
C         -10.57831029357031    6.65957982719965    1.25165970815642
C         -10.67596325875248    8.04714431545279    1.49343512781059
C         -11.85551548176544    8.80314084154541    1.19125278931726
N         -11.87229481441571   10.12685846921876    1.44654607427016
C         -10.83077884235421   10.69713404417560    1.95712324805211
C          -9.66066797786305    9.94787381671873    2.25508879022694
N          -9.60912076812311    8.67708245067148    2.02422773858429
F          -8.59098010462739   10.53267046105166    2.78168654947545
F         -10.88707203190717   12.00184692973405    2.19917111421731
C         -13.01045660808599    8.22011024964034    0.62757824532495
C         -12.93320730076278    6.82427944118111    0.40709673303099
C         -11.74192397186479    6.06005331043478    0.71231117511513
N         -11.90144485666379    4.76974695390207    0.41405240380222
S         -13.37169159300667    4.53598488865000   -0.17906694075382
N         -13.89460616516564    6.04857500278792   -0.09617688895961
C         -14.14973164169369    9.00239707269926    0.29080194462986
C         -15.33403930968312    8.54707129578995   -0.26925317744742
C         -16.22644596017562    9.58308928895170   -0.50802912689663
C         -15.73561165592879   10.84477520536451   -0.13306939674172
S         -14.14814837780364   10.73716658999403    0.53639166735187
C         -16.64772689050597   11.86262682925868   -0.41078714362835
C         -17.82900489404050   11.37844532726257   -1.00159828815573
S         -17.82568961610330    9.64917438623614   -1.19798028437491
C         -18.73344691584313   12.37543245355507   -1.34129375653532
C         -18.26527896818638   13.63723851229134   -1.01050583886692
S         -16.68908563586549   13.57003417457407   -0.23606652460588
C         -18.88458641599138   14.89812922263999   -1.16272092759593
C         -19.89803031507445   15.27563908236808   -1.98954329953072
C         -20.52021299314338   14.66434313285848   -3.14417158814667
C         -19.92347367483228   13.81428673081146   -4.04023735325940
C         -20.55843249518642   13.31956980908140   -5.19745153896879
N         -21.03621675194059   12.87224026577921   -6.14063482990137
C         -18.57633729230536   13.40951362468078   -3.96274252140822
N         -17.47554318185674   13.08374880542107   -3.96859016625256
C         -21.80296018078431   15.32934698104572   -3.34876960141644
C         -21.86340618127635   16.46959605545650   -2.50611734246468
C         -20.64574310297370   16.52792937108759   -1.67874748365774
O         -20.32619493045832   17.37731615269717   -0.87901039007117
C         -22.93084695775709   17.33485651727066   -2.51396789858177
C         -23.99120002064015   17.05675924089583   -3.38190562692236
C         -23.92979841436457   15.90518605833743   -4.20341878069429
C         -22.84666979197685   15.03377707183692   -4.20351570400350
S         -25.35391463137822   15.75537392688924   -5.18298282181117
C         -26.00242269226920   17.20895631914545   -4.50575473708278
C         -25.19805151894603   17.78372569257447   -3.58532361897699
H          -0.55474874758992    8.73404801449277    4.92633593641393
H           2.89581877583157    5.10072147056707    4.93491092078324
H           4.03779925507841   10.03982887038642    6.55160097151910
H           1.51884026967746   10.33929598642113    5.92871695658042
H          -1.84077264601395    2.85496061589841    3.11623148060359
H          -3.95543457753769    2.05670623708226    2.37499752390877
H          -9.92754528901994    3.92563584607134    0.93993770022676
H         -15.51103599243733    7.51161004244595   -0.48919932698043
H         -19.70076298404071   12.19170098115240   -1.77200276353497
H         -18.54443547336477   15.67450900328679   -0.48333420996057
H         -22.94488452962676   18.20156563391857   -1.87161170141982
H         -22.84536621422200   14.16682079062868   -4.84348740598758
H         -26.96205918389289   17.54779404903681   -4.84471938606828
H         -25.43562459063150   18.69095371693413   -3.05996404157247
