87
 SCF done       -176.076423495763          0.000991921597
C          -1.67828485612611   -0.24661832139294    0.81497062504359
C          -1.51693541674189   -0.94571913543659    1.98096781198231
C          -0.37665557508626   -1.71952005732552    2.28235504700874
N           0.52909817190608   -2.36010311318120    2.57593568919049
C          -2.49528555222987   -1.03880804262667    2.99442687052619
N          -3.26269500802752   -1.18540123914523    3.83509258596937
C          -0.76153004367559   -0.23007686094476   -0.31383979477399
C          -1.40048096688193    0.41534404326536   -1.40301226716066
C          -0.78579018347225    0.59060141643941   -2.62006483084518
C           0.51940065882004    0.11246226624048   -2.76732094251718
C           1.15014301517258   -0.52713466178780   -1.67200420464022
C           0.52802745093208   -0.70914154980053   -0.44249037547653
S           2.76048233483396   -1.02677740698802   -2.07859390492667
C           2.58068451352592   -0.39119205740735   -3.67676516748223
C           1.37346136347055    0.17105605655702   -3.90426350613421
C          -2.75311726551681    0.84156982076898   -1.00646681958960
O          -3.57378667752149    1.37750416037650   -1.72211040110046
C          -2.85375978206190    0.52584477760555    0.44374110905569
C          -3.72599081830356    1.07708199545786    1.33451299722734
C          -4.90042433725283    1.81737086438621    1.05423143558699
C          -5.74370109425515    1.76626425775885   -0.03247239379296
C          -6.80801193074110    2.67153408596474    0.03855278847503
S          -7.90053468594784    2.89500054748523   -1.30111811010506
C          -6.88580844854009    2.27942454074282   -2.68801232478609
C          -6.80413436590777    3.42899122232282    1.22386676755667
S          -5.43386631688394    3.01090663547973    2.21005873646519
C          -7.67838011260244    4.45598884366006    1.66271568764219
C          -7.27084659523415    5.35897028255618    2.67943629728456
C          -8.07114092980250    6.49169179849636    3.05891095104625
N          -7.60198357851909    7.35054478563483    3.96776885527359
C          -6.43186371189507    7.15917790128547    4.52688733698365
C          -5.66364106087219    6.00041679102775    4.19358899218357
N          -6.10213129981717    5.15429189402109    3.28942088838309
C          -4.42419972278253    5.74821109564082    4.83074870184692
N          -3.42724334670718    5.56732619636910    5.36478934738133
C          -5.97252069365835    8.12127369874496    5.46037594713979
N          -5.60809378073522    8.89640312746861    6.22075583840488
C          -9.33910481247463    6.75966361932531    2.49747238912940
C          -9.80234163998298    5.79931076450506    1.57204104833378
C          -8.98660467339138    4.67195130611883    1.16955399499837
N          -9.64429062041515    3.87184296580695    0.33542591948694
S         -11.10671730939829    4.46618907645011    0.05645091444954
N         -10.99934089744469    5.77319105036145    0.98762857174160
C         -10.03183975023901    7.94967566073052    2.83809789642430
C         -11.20558474811550    8.44054956722969    2.29360396670942
C         -11.55800298928905    9.69833928354125    2.78585312234785
S         -12.93785840030286   10.64755472354482    2.30775957291782
C         -13.73324820964230    9.57560582357023    1.07720148049043
C         -10.63094153163563   10.19989079551802    3.70681738035369
S          -9.35981318075788    9.04328031018401    4.00083661294971
C         -10.66896650530318   11.43455184938542    4.38486958511817
C          -9.61666418871027   12.04906881617057    4.99767914943395
C          -8.19079021155972   11.80839103391979    4.89980217358109
C          -7.50873053937414   11.44556306721461    3.76718856478536
C          -6.11242724258154   11.28160654473845    3.69706810075122
N          -4.98514338497876   11.10378918029921    3.56889747076025
C          -8.13687163825726   11.23769345762176    2.52178435428518
N          -8.60529192342500   11.10197928490902    1.48185541314059
C          -7.58704729814260   12.30539851251668    6.12613010852840
C          -8.55317968220939   13.08131900935319    6.82059818845153
C          -9.83657403106756   13.03409544007138    6.09243308198895
O         -10.86596535345556   13.61351647954432    6.35329214538894
C          -8.26068932709650   13.72367768388097    7.99964146481911
C          -6.96967889261608   13.58039477164954    8.51915764634940
C          -6.02503793165473   12.78247317591753    7.82782258088290
C          -6.31225581910336   12.14121993402585    6.62868485628953
S          -4.50925548953677   12.73157720915969    8.66752516482729
C          -5.13356782371807   13.76411133174466    9.90672714989452
C          -6.41916126026449   14.13110573777797    9.71058542460941
H          -1.29622830259627    1.08468552859552   -3.43227902953986
H           1.04972525657712   -1.19439959821399    0.36564388860032
H           3.40432539005621   -0.47811358857761   -4.35845821430249
H           1.08353322133727    0.61763477168100   -4.83806482667273
H          -3.47800835638314    1.01527975313335    2.38810593389818
H          -5.60984064933553    1.06684434332735   -0.83328458328161
H          -6.95402302437522    1.19767436112921   -2.74829196237983
H          -5.85443946079052    2.59511493196421   -2.57486558854579
H          -7.32046931438656    2.72007906696518   -3.57983678463957
H         -11.75051864158823    7.88100075088222    1.55733519117310
H         -14.61316925719143   10.11511156173177    0.74101218241197
H         -14.02629704953862    8.63673896859198    1.53687337057105
H         -13.05635683863045    9.41384501544559    0.24404345557572
H         -11.64122185454850   11.90472919932391    4.49706555654568
H          -9.00492276989070   14.31707925938617    8.50786703293525
H          -5.57493873135408   11.52329856714091    6.14296811811339
H          -4.48994087408365   14.03649085476569   10.72061216513455
H          -6.97247078226925   14.76803812524439   10.37684233959080
