89
 SCF done       -187.945950096993          0.000701180478
C          -3.38248516078743   -0.97482034240504    1.08424938646652
C          -4.23756696339403   -1.98684976894990    0.73452796760856
C          -3.97667423427265   -3.35431444555713    0.95854833002084
N          -3.81400063094146   -4.48082406996643    1.10919054727763
C          -5.50796354839303   -1.79521280011859    0.15107554204469
N          -6.56173803396593   -1.71588510751984   -0.29793207181197
C          -2.12121001424852   -1.12496464298541    1.79710764386874
C          -1.62484142414334    0.16436740837888    2.11618472434480
C          -0.44593905162818    0.35311443985720    2.79580353427066
C           0.27725471885783   -0.78101143264473    3.17915980322469
C          -0.22423765886562   -2.06313387212470    2.85129634313175
C          -1.41709035441601   -2.25567136006941    2.16400727226416
S           0.83724644181883   -3.31590441399993    3.41366111381350
C           1.91910201661367   -2.13783525539931    4.07119631570618
C           1.51218544663039   -0.86347131387742    3.88220934556852
C          -2.54515850746766    1.18897501260127    1.59310388419079
O          -2.40406572281351    2.39400521870204    1.65785264785487
C          -3.61901130058213    0.44384561529791    0.89889756235133
C          -4.52512786474514    0.99832202926032    0.03912024568426
C          -4.82597530034340    2.36943126646113   -0.11643445378655
C          -4.93193665464524    3.39522257717219    0.81553457201308
C          -5.19611025426616    4.65092040202558    0.22886063922624
O          -5.43136843081111    5.80892316750072    0.87593521373292
C          -5.62118941344556    5.75619939057304    2.27461598000400
C          -4.59423842302750    4.88917999771118    2.98003345920105
S          -4.87846735757712    3.14571095716288    2.54119314768261
C          -5.26585619071685    4.59238007010481   -1.16555477410043
S          -5.18120457116763    2.95287045075310   -1.72425083011064
C          -5.38089027245548    5.66085430109689   -2.10296655644597
C          -5.91176851558248    5.42984756655593   -3.39227620293295
C          -6.05725809586411    6.46738596710870   -4.37063516276975
N          -6.63218453537855    6.17477992112671   -5.55235101186321
C          -7.01840992779692    4.96736069874286   -5.80470437799500
C          -6.84045628826243    3.93157607555877   -4.84876717500429
N          -6.31375680291370    4.17889091583927   -3.69495509914351
F          -7.21649421900333    2.68552676486184   -5.11062259936675
F          -7.59187928174430    4.72698129131870   -6.97770521961586
C          -5.59798730671130    7.78824973569701   -4.15231054051400
C          -5.07834881276528    8.02459514004435   -2.86169603741387
C          -4.95683242514507    6.98506513488752   -1.85863699486967
N          -4.38909577866914    7.44915964193793   -0.74611626469580
S          -4.09778954316578    9.01211238363546   -0.90385587883494
N          -4.64881565365408    9.19703338914512   -2.40047002161893
C          -5.66075729909212    8.76906762067673   -5.18454969849578
C          -4.95057961123953    9.96425526178102   -5.33099333541923
C          -5.27917894594404   10.65731472590664   -6.51506661601238
O          -4.82252939560655   11.85898896033976   -6.92232806915705
C          -3.90038486874751   12.53865744619208   -6.09264283860511
C          -2.85232690481708   11.59619710193687   -5.53700587227406
S          -3.64956034030015   10.51388490522682   -4.29630563598546
C          -6.23402338798150    9.99608941675578   -7.29210708974444
S          -6.72360127456929    8.51072023396998   -6.52994073178721
C          -6.83709337434260   10.36821362016156   -8.50913052901594
C          -6.45107260876494   11.25595378895433   -9.47308838127619
C          -5.21232920186476   11.92989499667134   -9.75813292912256
C          -3.95236863586891   11.50325664570359   -9.41394248557254
C          -2.77085387920746   12.22406159920111   -9.66889971095590
N          -1.77752901542333   12.78897622623123   -9.78853539743783
C          -3.68548173600775   10.27218482928246   -8.78959080209160
N          -3.41125826220701    9.27752411536976   -8.28441478212626
C          -5.50632171907162   13.03113489811454  -10.66920770412306
C          -6.85321614611875   12.91711368553069  -11.09916659951662
C          -7.48015464212548   11.76392817630460  -10.42564501071613
O          -8.60210471074820   11.33658868829656  -10.57428127322678
C          -7.41283839268521   13.78644521144366  -12.00370804228347
C          -6.61136293574245   14.82032761123466  -12.49941694324189
C          -5.27251010806337   14.93110044516561  -12.05522250114759
C          -4.70209029641329   14.04667378192654  -11.14635500303418
S          -4.47421666879097   16.28267374527323  -12.79519588781473
C          -5.90803685772585   16.67704942399309  -13.67909410412810
C          -6.94110048338762   15.84205473619152  -13.43463973670710
H          -0.09191856363389    1.34625772860603    3.02527500648537
H          -1.75530335425576   -3.25163931771914    1.93108605364131
H           2.80804821331640   -2.47832023331188    4.56585149233229
H           2.05711933064572   -0.00113310980094    4.22161630160948
H          -5.00468720962519    0.34932211632507   -0.68454967412548
H          -6.63180460520679    5.38685660160534    2.49932399285367
H          -5.54051918703768    6.79655328495682    2.60192271900606
H          -4.69473244866130    4.96130886740466    4.06029449375509
H          -3.58054783325832    5.14835175269800    2.67480404263591
H          -4.43377286969438   13.03339175349456   -5.27019227819167
H          -3.45052183441350   13.30021029861255   -6.73689515217239
H          -2.07257695656643   12.13951828634993   -5.01018607236407
H          -2.41647681968724   10.98307731392517   -6.32560860905548
H          -7.80478491061761    9.90816163478207   -8.69195104937793
H          -8.43730287583979   13.67102424396323  -12.32198384111024
H          -3.67746049795301   14.17095797732747  -10.83639571392979
H          -5.88659416101757   17.52384820741789  -14.33718809392919
H          -7.90935581152514   15.93229258958648  -13.89274985581503
