89
 SCF done       -179.499363984174          0.000736049212
C          -9.72214246816471   -0.09316503863918   -0.17952122216605
C          -9.48302383693653   -0.86883103117516    0.92763910847971
C         -10.32197399060616   -1.92044631154818    1.35080861948551
N         -10.95695232569521   -2.78938926640033    1.75182000049414
C          -8.38015622285950   -0.76081200842346    1.80002196413892
N          -7.52203567273008   -0.75909748296364    2.56439467395742
C         -10.86235163697647   -0.24639372386300   -1.07963599360879
C         -10.74344742414140    0.70164325027417   -2.12619264348611
C         -11.66494231460372    0.81033036339201   -3.13871930312651
C         -12.76005617029641   -0.05901594052905   -3.12058951271675
C         -12.87153223084606   -1.00297523836572   -2.07293907731621
C         -11.93843739593556   -1.11223975250234   -1.04765352801309
S         -14.30027022301919   -1.97241091597239   -2.25079935738825
C         -14.72694598490312   -1.12276811296309   -3.69591282363932
C         -13.84583099935881   -0.15694923612976   -4.03592820314122
C          -9.51972350823728    1.49510462427812   -1.92249593713498
O          -9.11682150962372    2.39020843801490   -2.64495993005561
C          -8.90628295777551    0.99023301367464   -0.68874596296573
C          -7.75730714401324    1.47026920872412   -0.10861480107405
C          -6.88668851012267    2.47820132506400   -0.53327832876094
C          -5.71493539890871    2.79701052470903    0.17722996111562
C          -4.96263792411045    3.81905036215049   -0.40933704701296
O          -3.75850329184983    4.26592469305817    0.01572557095222
C          -3.44435454836167    4.00739436584559    1.36605447780416
C          -3.51806444983726    2.52619397826861    1.70109339131082
S          -5.24931141956844    1.95627387519529    1.64029490115735
C          -5.55074272007717    4.29966980890931   -1.58431425491041
S          -6.99854911571990    3.43432129161972   -1.99054395096309
C          -5.12300418721803    5.37812180497872   -2.41340757696728
C          -5.56739521402669    5.43323746497250   -3.75870073849036
C          -5.22058289640822    6.49951026127187   -4.65283157353714
N          -5.67318867493413    6.47067841621255   -5.91759479328255
C          -6.43956524229194    5.48776469220811   -6.30550474579841
C          -6.77446689796660    4.43905686805734   -5.42873895578799
N          -6.33493807012052    4.42431428340394   -4.20338471699356
C          -4.40012324318488    7.57448506646338   -4.24465749002525
C          -3.93456601716374    7.50883091985730   -2.91252254651944
C          -4.31781292038669    6.45913202049694   -1.99560652781592
N          -3.85117065031090    6.69980580827994   -0.76798886608367
S          -2.99882355920938    8.05253690636191   -0.77025209878273
N          -3.17588765237612    8.43112968783040   -2.31946340870134
C          -4.08449613872629    8.69550465090083   -5.05872733027244
C          -4.70192912472295    9.20702836353658   -6.20031177295056
C          -4.09135016015747   10.39535823939793   -6.66105236523509
O          -4.43077123373131   11.15057270713820   -7.72009718978132
C          -5.50326107805953   10.70779417723945   -8.52845609424984
C          -6.65459092372599   10.18515964962120   -7.69450010135355
S          -6.16041751030746    8.58263620866330   -6.93422380744904
C          -3.03425485498684   10.82020353054135   -5.85540598987998
S          -2.76040077409068    9.69788338678325   -4.55706702089068
C          -2.25365611268390   11.97321689611903   -6.07761275980905
C          -1.41604405647527   12.59411531438289   -5.19988976033911
C          -1.26064684478250   12.44367668380389   -3.76855399012754
C          -2.26688859984367   12.18200082646269   -2.87337180336806
C          -2.07394994108197   12.01158534758301   -1.49098016976342
N          -1.96566057810075   11.81515444611556   -0.36432303964248
C          -3.62463971636160   12.11339508301710   -3.25029024027984
N          -4.74280661931178   12.13365038818792   -3.51174706355801
C           0.08100272196908   12.90065757788773   -3.43118951763520
C           0.63298781604288   13.55131893207217   -4.56568450169073
C          -0.31699266586331   13.46193656810587   -5.69416527204789
O          -0.20243676750151   13.94035122288379   -6.80008726035172
C           1.87538619905149   14.13683534103602   -4.54198776867042
C           2.60988991076216   14.06539674094594   -3.35381364576190
C           2.05358188803987   13.40359401765232   -2.23320130204398
C           0.79110350282140   12.82195446738648   -2.24986761203351
S           3.14493845061241   13.42922957008115   -0.88349292024616
C           4.30986137323191   14.31141722724326   -1.80994209046803
C           3.90844988811377   14.57678429269563   -3.07178306401509
H         -11.54395706455479    1.54483091032301   -3.91981006636046
H         -12.07244861861607   -1.84785688049477   -0.27256913341979
H         -15.62592194198101   -1.40408375395481   -4.20906921012899
H         -13.94711467697046    0.47311490937009   -4.90109103664990
H          -7.45665455427088    1.01209344889480    0.82753382730035
H          -4.11576328487990    4.57435629707771    2.02402659384374
H          -2.42404766918903    4.37768991895364    1.49241373195065
H          -3.16926116595494    2.33186496562830    2.71267213046603
H          -2.93888422512182    1.93940272680452    0.98782366641216
H          -6.78465633317863    5.52013079340355   -7.32872768596932
H          -7.38696376782562    3.60384622514316   -5.73525116064129
H          -5.15377283911625    9.92334159670080   -9.21342444276181
H          -5.79464035061926   11.58607304312090   -9.11133643279618
H          -7.52191760381021    9.96921778970757   -8.31237444819354
H          -6.91999620220959   10.89130447246577   -6.90840649747922
H          -2.27289551842606   12.36676996232032   -7.08857074316972
H           2.26946752668733   14.63549949662216   -5.41389386623058
H           0.40345287582315   12.32443142678126   -1.37582588764048
H           5.23793359752864   14.57956922917831   -1.34374466634439
H           4.49961038746025   15.11398230040361   -3.79123597087699
