83
 SCF done       -169.300855617168          0.000613986769
C          -2.76672571221553    2.17512164949856   -4.00930858163931
C          -1.47510195701252    2.56514850676474   -3.76352377474061
C          -0.38497374977425    2.25442886127552   -4.60351212477404
N           0.54355124643837    2.03166100100499   -5.24098879733113
C          -1.04101949389950    3.36549163877571   -2.68543814059509
N          -0.60068344350719    4.03106252442521   -1.85921585391460
C          -3.21150147821605    1.44716052600580   -5.19045336830780
C          -4.62658751424615    1.39576968449469   -5.17922233560612
C          -5.35465574872709    0.78231161689848   -6.16997809338145
C          -4.65249255180348    0.18483417333240   -7.22067262703794
C          -3.23780609186920    0.23533833607924   -7.22088973972117
C          -2.50175059235474    0.85967083220612   -6.22077123563855
S          -2.58075694602988   -0.57238631600423   -8.60947490170577
C          -4.17164478005966   -0.95998414742490   -9.16715353229330
C          -5.15446142964306   -0.51070076517845   -8.35662557439902
C          -5.13865091115635    2.07667324120598   -3.97674217663662
O          -6.31088170036136    2.23902779086593   -3.70577967352104
C          -3.93941827453779    2.48020437504540   -3.20339496796408
C          -3.86744328909654    2.93020215678379   -1.91236450094692
C          -4.87025774804060    3.30692318702945   -0.99826228809703
C          -6.23671714628340    3.50952933834279   -1.13638404876473
C          -6.82693235272624    3.91892474120391    0.04952009813989
C          -5.92804775130691    4.03898765645924    1.12775130605558
S          -4.32158141060205    3.64765730502163    0.64948402764870
C          -6.52527457907614    4.44079700195870    2.31448235688974
C          -7.88929316784825    4.64174118409269    2.16002503138292
S          -8.44345916555243    4.33339430393500    0.52873066161435
C          -8.80311497788428    5.05136684274782    3.16796685202811
C         -10.17245139840063    5.25169112373705    2.86678493409510
C         -11.14491451077597    5.66692690592699    3.83650814804928
N         -12.42485679686250    5.83451344322376    3.44571057276011
C         -12.74649865631535    5.61045419204648    2.20279947277366
C         -11.79186014810860    5.19899378408332    1.25132286088163
N         -10.54726509404611    5.03272210787538    1.59398182845155
C         -10.78042148272431    5.89373334525977    5.18970642079748
C          -9.41716413980609    5.68712445569110    5.49010462209850
C          -8.43833094670284    5.28033906594204    4.51034818724968
N          -7.22431092082314    5.16047905003211    5.05499914410145
S          -7.30259632786130    5.51595318056770    6.61512569417013
N          -8.86864815475214    5.84280683878691    6.69659485736519
C         -11.68672324947814    6.29363829484204    6.21265297430057
C         -13.03736140285467    6.58422620130366    6.09442480093804
C         -13.59887258216607    6.93064075337680    7.31530619779908
C         -12.69373480137899    6.91350447651111    8.39047231216841
S         -11.11116162792940    6.46197479380379    7.86368991229434
C         -13.26132940896975    7.27746800602992    9.60502925998018
C         -14.61656557948023    7.54459321088270    9.49374544064657
S         -15.17852772909065    7.39079281441102    7.83232210545106
C         -15.44040586767239    8.00943242406703   10.54475412576481
C         -16.79560746827101    8.10156500889043   10.61256257155058
C         -17.85473027438413    7.52155509148333    9.81437690616945
C         -17.83309913118013    6.27752240394551    9.23999729746274
C         -18.92329412950750    5.71438478581059    8.54861417087766
N         -19.78036234532454    5.22374080088067    7.96353283448757
C         -16.74540616739023    5.39087921297769    9.38356721810822
N         -15.90289475148750    4.62627457686621    9.53520697998731
C         -19.03704786167514    8.35412555503150    9.99674731503928
C         -18.79589797258260    9.25041077723053   11.07099652155714
C         -17.41869490240707    9.06343215481600   11.56475386387140
O         -16.88005935803356    9.60699554901945   12.50162527245458
C         -19.74775709459249   10.13699074349202   11.51406429944978
C         -20.98419933474812   10.14885704891597   10.86114003913689
C         -21.20795124395751    9.25975094060017    9.78207044185956
C         -20.25088761911973    8.35375047217690    9.33931356964871
S         -22.79972655144033    9.46144050871920    9.12185005893077
C         -23.14754516244086   10.70383406505636   10.27439504835874
C         -22.12388159059045   10.96308714247301   11.11641572018070
H          -6.43285294985489    0.76381970211172   -6.13231233759419
H          -1.42564918192537    0.86608489053726   -6.26510513447953
H          -4.27345481747988   -1.51040325252076  -10.08223772281199
H          -6.20294926219310   -0.65874448858026   -8.54202050688659
H          -2.87108476024425    2.99488547436736   -1.48950048894723
H          -6.75811733049892    3.35452577952426   -2.06231983902219
H          -6.02024262021414    4.58700425064121    3.25050514267412
H         -13.78459991717731    5.75715788764710    1.93778914629317
H         -12.04778603711996    5.00997779106478    0.21883277515183
H         -13.55827026576311    6.53236527291205    5.15806125648067
H         -12.73295118838202    7.32407212057936   10.53949781789618
H         -14.90922950796718    8.44291073360457   11.38748481128306
H         -19.54425797497423   10.80161048142609   12.33928443894557
H         -20.45935676484363    7.69699282918632    8.51058510385687
H         -24.11294871699703   11.17069476086859   10.24837599344980
H         -22.15784220196243   11.70209321323523   11.89633154583305
