93
 SCF done       -205.122022163187          0.000690491380
C          -3.22701170898445    1.23959691254112    8.70892758945999
C          -3.12778757395482   -0.07550604529077    8.33509480796343
C          -2.39085170408740   -1.04496133374030    9.04900816572861
N          -1.81896889836229   -1.88548249910210    9.58208976203516
C          -3.69343431544498   -0.66076727473913    7.18194586840817
N          -4.09832213296491   -1.22366456892087    6.26625281071148
C          -2.55017971516339    1.83787335104587    9.85151458005930
C          -2.75933171077038    3.23845536477666    9.81733908674742
C          -2.23465886419803    4.09097956053436   10.75905982921392
C          -1.47280501048729    3.53450276811014   11.79012924806685
C          -1.27529614799626    2.13246983582633   11.82197124147392
C          -1.80112591350672    1.27143756802937   10.86624781086256
S          -0.31118538713559    1.66510692753748   13.18686727989491
C          -0.18106036465009    3.31450827899995   13.69072072878237
C          -0.82760661208930    4.18156689932877   12.88119758800347
C          -3.59788944563843    3.58754493648243    8.65893557675665
O          -3.91465164045457    4.71113529455946    8.32981132046332
C          -3.95697540004762    2.29557105834967    8.01841560513854
C          -4.88045920414578    2.05679937084296    7.04020503326090
C          -5.68808546394733    2.93169089167994    6.28213307493087
C          -5.75292304413212    4.30977614883849    6.17131358178907
C          -6.73506369237436    4.73916036472221    5.28683785913177
Cl         -7.02924858313164    6.39736980099739    4.96739874834677
C          -7.46335678582309    3.70710622466652    4.68203805050370
S          -6.87086969705970    2.17520087139687    5.23784290156714
C          -8.54285293117401    3.82186783094501    3.78177702997803
C          -9.28355142652116    2.79464055043592    3.19448991625021
Cl         -8.95283416153754    1.13321504359694    3.44966280271179
C         -10.32606318428432    3.23439377555526    2.38942771104449
C         -10.41421713108309    4.61536301693402    2.33112694046757
S          -9.16772623028922    5.37170929709984    3.27612915795982
C         -11.38789724340535    5.39533697755209    1.65781454948528
C         -11.33071780471861    6.80622417189007    1.70827618456544
C         -12.34045345105774    7.63981251018402    1.11502658498266
N         -12.23346888646228    8.96896356911883    1.20236359313884
C         -11.21462027120795    9.50763726453673    1.82752454741262
C         -10.21280348748676    8.67655191809280    2.42674017363454
N         -10.30240658380555    7.37082028349168    2.34834937284046
C          -9.11366381375512    9.24989238878756    3.11319932527142
N          -8.23576875273318    9.73781058637610    3.66322841440359
C         -11.12304089756870   10.91981313382715    1.90069511134377
N         -11.02885945788018   12.05869797163576    1.97454141752529
C         -13.46863188102815    7.10754436876492    0.45182557902709
C         -13.50753096527628    5.69676399241692    0.35594551469012
C         -12.48353801019960    4.85679883385309    0.94290996189946
N         -12.73226327075635    3.56445048171667    0.73200166619912
S         -14.08984621138348    3.41352793580298   -0.10860621294398
N         -14.44687816221736    4.97063220532102   -0.24967937490763
C         -14.48352071632400    7.96933931831535   -0.03464231897048
C         -15.67294066302220    7.61559381393564   -0.64973216347257
C         -16.46952889588790    8.71211307837668   -0.95198177984868
Cl        -18.00133895786858    8.56167038235682   -1.70662877417828
C         -15.91219139210102    9.93896222612014   -0.59073865215875
S         -14.34948864251077    9.69219964098827    0.14588457730500
C         -16.46673571124305   11.22463580233909   -0.75525681443860
C         -15.88052209327960   12.46158824969239   -0.48020448257372
Cl        -14.29181756621806   12.62563527523088    0.14074053436266
C         -16.70632690317176   13.55017250996028   -0.74610978124502
C         -17.94408210713992   13.19105538851818   -1.24859352962481
S         -18.07799350802341   11.45882505692618   -1.35840548674258
C         -19.01543041425949   14.07781463895812   -1.51233031041677
C         -20.20917576220171   13.84079401093667   -2.11646143076784
C         -20.70622477861301   12.73189651099736   -2.90637844898450
C         -19.98461699719141   12.00669535100784   -3.81678867904801
C         -20.53210586342607   10.98293425184898   -4.61503526450276
N         -20.93010297937745   10.12707220837098   -5.26798381491996
C         -18.63406806588198   12.28262467941485   -4.11788075586512
N         -17.55503444916892   12.52079583517172   -4.42739251699694
C         -22.15762155445717   12.73174486572714   -2.77779260114723
C         -22.55774677802218   13.95194903855638   -2.17143981276239
C         -21.36258888554955   14.74315142878057   -1.82668205701287
O         -21.31033248992583   15.85402474578717   -1.35344304089356
C         -23.87855289221067   14.26519527649993   -1.95604442961887
C         -24.84352473374823   13.33028978138803   -2.34298041584253
C         -24.43148694511606   12.11115387233424   -2.93487080987740
C         -23.09695487672384   11.79657643868178   -3.16410287947125
S         -25.79305760361099   11.10736953956892   -3.31861636951882
C         -26.88018953197664   12.30309962226947   -2.70167342101200
C         -26.26037348522359   13.40529625770577   -2.22684451048903
H          -2.41027713924289    5.15392358428517   10.70027502197512
H          -1.62416484401277    0.21152839454109   10.93827237197551
H           0.38036891220076    3.53620597604527   14.57747086244933
H          -0.85650118141874    5.24467351467128   13.03746864768150
H          -5.06762495044497    1.01489962797445    6.80594950166591
H          -5.11347301346253    4.97529174971255    6.72197835679369
H         -11.00367847529563    2.58519524308698    1.86738586368652
H         -15.93980190985008    6.59653939956196   -0.85830455846490
H         -16.40488248022037   14.57016113211886   -0.59371583912654
H         -18.90962185724305   15.06760850806864   -1.07783019730607
H         -24.15836865613450   15.20298804211895   -1.50186042272655
H         -22.82468202601026   10.85478170520514   -3.61177880478529
H         -27.93344595791817   12.10234215637257   -2.73283943407104
H         -26.77362694534854   14.25032305409707   -1.80500924475570
