91
 SCF done       -210.278377240420          0.000614169339
C           2.48814928191532    6.38779585396231    1.27820179816645
C           2.46777472737838    6.05896898443333    2.60746840662618
C           3.58799281588530    6.15114272554232    3.46188550855942
N           4.45636696629183    6.20366142974297    4.21044910144008
C           1.35165633457221    5.58158941433867    3.32837261185596
N           0.50241896734895    5.18620992050551    3.99214400645232
C           3.65162458557819    6.87796251119951    0.54755594607704
C           3.28313703891974    7.10296813171902   -0.80402311246847
C           4.16713299578315    7.56863539086882   -1.74824904347989
C           5.47951642074809    7.82480488789024   -1.34188172955477
C           5.84044895492971    7.59715837992552    0.00879248476217
C           4.94595849188744    7.12687386506070    0.96338788935621
S           7.50923028324800    7.97928898952494    0.28610386876501
C           7.70676294076046    8.43106467316427   -1.37138005954697
C           6.57991433210539    8.30473908539161   -2.10615011178630
C           1.86732407156329    6.76043421023419   -0.98000726268511
O           1.22441541164176    6.83338717092995   -2.01353775657944
C           1.38311900852446    6.31422485820378    0.33501487664991
C           0.10870759631644    5.90232733708532    0.60397243413738
C          -0.99866747721167    5.79019660359262   -0.25970011434510
C          -2.23442585280544    5.32571525540049    0.20535462195610
F          -2.42428608791665    4.98215327873665    1.47938835672807
C          -3.21635459314402    5.25215858427767   -0.77083476216922
C          -2.73222388622790    5.67263719641033   -2.02193611494128
S          -1.07486605631015    6.15458573202004   -1.97574827042286
C          -3.72227335134428    5.58237150613014   -3.00534361929698
C          -4.93343714008070    5.09413297469031   -2.49519154999086
S          -4.88365619729791    4.74446734015203   -0.79188158961403
C          -5.91946944244787    4.98138908993122   -3.47766237185406
F          -7.11301734521491    4.43831038661711   -3.23187443073025
C          -5.48783259266873    5.37995947740002   -4.73556629542654
S          -3.80845962838544    5.86911661661202   -4.70448146032810
C          -6.20148066613020    5.37241471293850   -5.97117861534093
C          -7.60832425463683    5.44957454315156   -6.06892911160404
C          -8.28120929471066    5.22174232830280   -7.32287905290317
N          -9.61798460376598    5.22533429209025   -7.36046129708673
C         -10.30853984110764    5.49702567741328   -6.28258259387703
C          -9.62797014086284    5.85370595505414   -5.06963824542065
N          -8.32385331458785    5.81143673838132   -4.99570676191996
C         -10.37046108700223    6.28355604166567   -3.94002638755147
N         -10.99989101305102    6.62694804202126   -3.04765733391951
C         -11.72385157632213    5.46555583939470   -6.33423496530095
N         -12.86885423752607    5.44402163780288   -6.33761821694469
C          -7.59413943166310    4.97983415051096   -8.53620912696739
C          -6.19229219056275    5.12955069483285   -8.46658106385988
C          -5.51667115142211    5.31044608658598   -7.20054213723788
N          -4.19690504725531    5.42032243914087   -7.35564287657648
S          -3.84524292663887    5.34358386198839   -8.91963116681062
N          -5.32654034649655    5.14984215995168   -9.47944790500351
C          -8.32761998116873    4.62443473591411   -9.70470908451015
C          -7.86887599314204    4.07710520740642  -10.89799876914093
F          -6.60811652882189    3.71470744342701  -11.13089463523067
C          -8.88126546466168    3.85531690574910  -11.83279340882713
C         -10.14132508609061    4.23673474735701  -11.35699412888731
S         -10.07047013803884    4.82134666227216   -9.73061135048507
C         -11.14224292253891    3.99276112953119  -12.30059605891688
C         -10.62802419356870    3.43837387919412  -13.48246947663540
S          -8.90758489805872    3.20053667132872  -13.44621046807075
C         -11.62071548386749    3.21837296811255  -14.43719544436795
F         -11.38660797092366    2.63783512574069  -15.61854888086103
C         -12.89070722284238    3.58820280851769  -14.01851718004841
S         -12.84804611586024    4.20125603993305  -12.37742241376671
C         -14.13788046020967    3.47218547688115  -14.68254466103806
C         -14.42488660564667    3.37268152714533  -16.00628396340116
C         -13.66622588295061    3.58357061740239  -17.22202590620756
C         -12.61735502448331    4.44893189690923  -17.39085659579279
C         -11.98135988049109    4.68701790578653  -18.62704794937455
N         -11.42613527377187    4.91604673632512  -19.60460351966454
C         -12.10231833083076    5.25716778547530  -16.36042482367217
N         -11.66789102055697    5.92951034896206  -15.53731926384173
C         -14.37856937221104    2.90597567217400  -18.29889999290639
C         -15.65134440306860    2.49782297611097  -17.82117940815400
C         -15.77180634129502    2.84890413484269  -16.39770389343327
O         -16.72487192796447    2.71200376474668  -15.66757428833471
C         -16.57019734786135    1.86420487408253  -18.62380807303150
C         -16.21343427807781    1.61194850423469  -19.95167632002877
C         -14.93416358488556    2.00851615585425  -20.41316183747322
C         -14.00708492496672    2.65702250463564  -19.60541167077199
S         -14.70768358755847    1.58352933562295  -22.07919319068530
C         -16.29463889332017    0.89869739529048  -22.14610301667292
C         -16.96876752291588    0.97781722145875  -20.97816766848020
H           3.85295602341005    7.72894394087079   -2.76790528439281
H           5.27224920072173    6.97101640960216    1.97785451661996
H           8.67072127602105    8.76906551311610   -1.69885223969586
H           6.51400866473090    8.53897863661462   -3.15315757077150
H          -0.11847697710978    5.60423267318868    1.62153074745147
H         -15.00060679063971    3.39257117147436  -14.02671328274946
H         -17.53440288639664    1.57240069125942  -18.23752675932690
H         -13.04163660870022    2.93327428252836  -19.99603823473806
H         -16.62943178671616    0.47146083264036  -23.07132747293948
H         -17.96627391518200    0.60496965544494  -20.83193245324657
