95
 SCF done       -190.224058884027          0.000675768921
C          -4.69677454442590   -1.64070303162881    2.33711970768877
C          -5.67309145536978   -2.59515882330743    2.23772486297504
C          -5.47404167760044   -3.95954184657702    2.53628417057962
N          -5.36687766686405   -5.08040930538301    2.75936595075017
C          -7.01474022896127   -2.34356031952160    1.87671112536200
N          -8.12779377777997   -2.21977841781502    1.62506385361968
C          -3.34297267503594   -1.84935614859079    2.82683103717311
C          -2.71348842779851   -0.58718974820081    2.96532081936589
C          -1.42267129928172   -0.45042474486136    3.41726987830391
C          -0.71893806280165   -1.61261002964242    3.74524006223739
C          -1.35419786365196   -2.86979387362038    3.59794634998957
C          -2.65981808095320   -3.00890929893920    3.14339838909932
S          -0.29412570174029   -4.16623601757236    4.05315136459666
C           0.96176810412332   -3.03891609625692    4.43197242866148
C           0.61281816022834   -1.74985224607814    4.22863886909148
C          -3.64169567436409    0.48326499729973    2.55690732620700
O          -3.41230751046173    1.67229040383399    2.57860146932524
C          -4.86098968233004   -0.21864351768186    2.06603430810308
C          -5.84031637236900    0.30673392685625    1.28414826274444
C          -6.10753371116400    1.68034412965814    0.98027383417940
C          -5.89141372102126    2.76494157389095    1.82384064706279
C          -6.21207813721867    4.07081938616385    1.46288445363830
C          -6.77448679355487    4.40791509940067    0.23646487924620
C          -7.01536596918082    3.32712948630113   -0.64391478380639
C          -6.70759573447972    1.98787372800551   -0.26340354926453
N          -7.04435801584259    1.19159156324887   -1.28784423939793
N          -7.50276283475450    2.00975037389291   -2.19358000467256
N          -7.50223756373984    3.27714748817291   -1.89373495851909
C          -8.02563644832206    1.53398213274125   -3.43691979949565
C          -7.09223046589501    5.77080641594454   -0.12818511609749
C          -8.14723817132247    6.07952049785553   -1.01226442829011
C          -8.35356496935051    7.41400872738518   -1.52194467236843
N          -9.16049311291759    7.57784645620042   -2.58173984843598
C          -9.89721984147367    6.58836576800017   -2.99992545109390
C          -9.92034678109504    5.34842342740926   -2.26481812017431
N          -9.02946115828010    5.12413351523551   -1.34133525869029
C         -10.86143276559634    4.33917715698414   -2.57634354440485
N         -11.59702343786473    3.51712257333522   -2.88776180329790
C         -10.70084868766305    6.76775703883927   -4.15066126075182
N         -11.38974688039425    6.90363324975932   -5.05653501242774
C          -7.66955306884130    8.53000836644466   -0.99847593264299
C          -6.66554955205358    8.23539572985302   -0.06025670643774
C          -6.36946868794144    6.87669507467650    0.35426807872337
N          -5.35354737505864    6.84494463094796    1.22459926328585
S          -4.85173473891019    8.33527270421133    1.50799096833734
N          -5.86352873391527    9.11641635510353    0.54903743516476
C          -7.97959657836793    9.87775061278710   -1.42184770570281
C          -7.02166405250771   10.88267461244435   -1.48762896967136
C          -7.31115589028944   12.16294200513954   -1.94278892614680
C          -8.58582028770629   12.56893878368254   -2.33442679026864
C          -9.58170270543738   11.56730331681381   -2.27499188930020
C          -9.28432949607057   10.25032767030682   -1.81207071088559
N         -10.43451579751393    9.55741250296901   -1.82685769560695
N         -11.31245766091012   10.39150857213481   -2.29442681841092
N         -10.88623948891211   11.58983079242780   -2.58948315218363
C         -12.67845574433896   10.01528272188661   -2.48899975809326
C          -8.78915391150197   13.90423247794346   -2.81045571114546
C          -9.92145312047158   14.64171622837678   -2.91924209009402
C         -11.27317491585016   14.44579990244650   -2.44244220078123
C         -11.63215503385495   13.79385018391254   -1.29321768539432
C         -12.96357792391241   13.56927096799692   -0.89749960424380
N         -14.02919623237503   13.29940106890226   -0.56395287999693
C         -10.69657046277503   13.29806881441466   -0.36213015171930
N          -9.97308376313933   12.91875238802956    0.44411627157611
C         -12.14957135680524   15.24989065234165   -3.28219951757771
C         -11.35025178167664   16.10851907977478   -4.08223509182523
C          -9.92595556518748   15.83169479558255   -3.82192854994821
O          -8.95942770240478   16.40124425443928   -4.27297934859462
C         -11.89599637669169   17.02153236652746   -4.95239265579865
C         -13.28968042944187   17.08269465182516   -5.04674901308706
C         -14.07694815704157   16.21385066263231   -4.25274496003535
C         -13.52747833421230   15.29723538900831   -3.36397519354257
S         -15.77002563592633   16.45934792910380   -4.54328720923125
C         -15.41793819442085   17.69972701279522   -5.69665872958384
C         -14.09664304302994   17.92435905786910   -5.86360840741015
H          -0.97190601158261    0.52513891323551    3.51426100059502
H          -3.09855137463654   -3.98754470621269    3.04176550767710
H           1.89973969095172   -3.41816836649364    4.78844696898998
H           1.26416842283903   -0.91389756240168    4.40892432006292
H          -6.48384994685347   -0.38131013340783    0.74713140790996
H          -5.48683697837648    2.59335450044534    2.80691365362873
H          -6.02695527630531    4.85838794375710    2.17519760069565
H          -7.78637490455168    0.47673854366206   -3.52189087726433
H          -7.58450193521284    2.09502390028315   -4.26018963741797
H          -9.10870477469471    1.67144852818337   -3.45887419280698
H          -6.01049206057284   10.65176156717424   -1.19373548263378
H          -6.51245279736497   12.88959368734037   -1.97417717222955
H         -12.85547149581499    9.08499458257918   -1.95463671861159
H         -12.87660614894640    9.86769089132568   -3.55222626866434
H         -13.33041392872221   10.80250748766673   -2.11043675863788
H          -7.90032557152028   14.38909800713426   -3.20550662122345
H         -11.26634738654266   17.66890459174257   -5.54287283608678
H         -14.16399822770278   14.65200418118254   -2.78098617061089
H         -16.23635373475261   18.19049983171020   -6.18649200649260
H         -13.69085412160455   18.65616562471386   -6.53838587749869
