89
 SCF done       -184.103322452296          0.000831865717
C          -7.25619387211652    5.75328046481334    2.36763597432663
C          -6.03825132694095    6.11441155872142    2.88747762702575
C          -5.57545637072115    7.44430042396197    2.96448067080471
N          -5.13889413766160    8.50220577332980    3.05856096989100
C          -5.08495449563531    5.23364502751454    3.43848854153665
N          -4.25829421456404    4.58877128974201    3.90847094365082
C          -8.25350366767630    6.67587112922901    1.83353318698250
C          -9.40832251317796    5.93706983959111    1.47091713063276
C         -10.52473987445319    6.52157428599324    0.92458980857746
C         -10.50184854490749    7.90505930390282    0.72246733479800
C          -9.34676775446900    8.63636820672692    1.08852329778623
C          -8.21770078753383    8.04383609944193    1.64358189319057
S          -9.53951775103366   10.32667362990048    0.74624008953569
C         -11.13053298337086   10.04555544713727    0.12811107741142
C         -11.50758663209763    8.74917417485270    0.17314646610653
C          -9.18191600426950    4.51465517248052    1.76721796369531
O          -9.98680222000824    3.60998105427399    1.63514469982789
C          -7.80398197017462    4.41548470083355    2.26781079654984
C          -7.13886277194908    3.24377823652772    2.52723110833876
C          -7.57962312236977    1.92134141352321    2.39402207405507
C          -6.74201721519573    0.82209690326111    2.59953126667671
S          -5.07284068115320    0.72159393837742    3.01862243261377
C          -5.14271288970681   -1.02737710043101    2.90222704103031
C          -3.91370146141833   -1.81763918543181    3.16301685222153
C          -6.37386219613324   -1.48481526033383    2.56744761115022
C          -7.32754555949477   -0.44489025285833    2.39846341594966
C          -8.67464785575640   -0.33025139630170    2.01963429995402
S          -9.15437179023949    1.34494126657005    1.89952083733369
C          -9.64502165562194   -1.33569702793661    1.76444445017318
C         -10.82150180359253   -1.02716527069159    1.03237090056540
C         -11.87283653827336   -1.97414752393953    0.82021284188414
N         -12.98591589240147   -1.58398861708218    0.17410142547082
C         -13.08801834333402   -0.37662729281723   -0.28162827898098
C         -12.01484590270843    0.53873716006836   -0.13797596491871
N         -10.93971577114104    0.20119288357545    0.49760711929545
F         -12.07452706064621    1.75183692916245   -0.67113422822403
F         -14.22030927669317   -0.03889010074314   -0.89058595882728
C         -11.80165433947608   -3.31501246032857    1.26883424750087
C         -10.63474633136770   -3.63211677467757    2.00070955867325
C          -9.58386576815824   -2.66571983033165    2.25016532616775
N          -8.62663360361663   -3.18569801142587    3.01579899863645
S          -8.98162288761351   -4.70844606530806    3.37316495709346
N         -10.37784012189265   -4.79868844350234    2.58335989051698
C         -12.83720041017338   -4.23580922490449    0.98004192927648
C         -12.91385725166971   -5.61307341812670    1.16580576535748
S         -11.85265444239486   -6.80302565734133    1.83022253622654
C         -12.98897497026472   -8.08093953385248    1.41938900499972
C         -12.63941424114487   -9.48659705483554    1.73966744201800
C         -14.11576434644268   -7.61622772843380    0.82751194670775
C         -14.10241590266485   -6.20765444996013    0.67052737436328
C         -14.96724225825552   -5.28229725282525    0.08672047712305
S         -14.28742970067096   -3.67517879970073    0.19151536534412
C         -16.24470529168733   -5.52804970504305   -0.44683256891134
C         -16.99524177406407   -4.69966674141022   -1.23080330738615
C         -16.64789921438893   -3.51952654014839   -1.99266460393451
C         -15.47027476146768   -3.30524122415677   -2.66100811797713
C         -15.21982360189704   -2.18748551207952   -3.48042495449433
N         -14.95546803580067   -1.29322959310533   -4.14991750292967
C         -14.41114024914448   -4.23593107683457   -2.67383584352832
N         -13.55425399385381   -4.99653078556578   -2.75066803113368
C         -17.87310627164181   -2.75212562033686   -2.17507086336766
C         -18.97359658500019   -3.55971349678247   -1.78516265889364
C         -18.47414577821403   -4.84927539270882   -1.26944216835874
O         -19.11750110447326   -5.80570089452331   -0.89859249610333
C         -20.27248182375403   -3.12215661344408   -1.88230803507554
C         -20.49185567456598   -1.82978819243153   -2.37022383428724
C         -19.38412001910553   -1.02799454722367   -2.73712950088311
C         -18.06928225205961   -1.47179596156416   -2.65100768797875
S         -19.89566454342594    0.53380583603759   -3.29314187148015
C         -21.55358068028245    0.10786801582996   -3.04190313357147
C         -21.72424434137352   -1.14288024724110   -2.56152398582559
H         -11.38467604185382    5.92765064020578    0.65663734237018
H          -7.36232009904267    8.64588762599637    1.90052193128032
H         -11.69320195012458   10.88260324955169   -0.23713527481711
H         -12.46017304842152    8.38629783817620   -0.16805174835345
H          -6.10899364409812    3.31833969000420    2.85840968836134
H          -3.14146563535158   -1.57574144645734    2.43280452413519
H          -4.13311121933391   -2.88074187285489    3.10591479395396
H          -3.51589240097360   -1.58927410343162    4.15116890511009
H          -6.60277002767578   -2.52614193046546    2.45440652844682
H         -11.74980729919118   -9.78940125701400    1.18810747468642
H         -13.45923339985297  -10.14998179512265    1.47623729997247
H         -12.42162990314365   -9.59302126750266    2.80156377728671
H         -14.92746222338053   -8.24291666038883    0.50543484193467
H         -16.73688541635146   -6.44001251666582   -0.12351673316677
H         -21.09490998558008   -3.75616649162349   -1.58929101119691
H         -17.25100322154659   -0.82787053173331   -2.92914821315633
H         -22.30957411635645    0.83310362025928   -3.27252625675254
H         -22.68242488713491   -1.57902707746895   -2.34396924207414
