137
 SCF done       -261.541162209558          0.000898451833
C          -9.25057990413543   -0.91511685327293    5.52706684300616
C          -9.05060994534722   -2.01749426934612    4.73557892996358
C          -9.23717839275766   -3.34690605379258    5.16978699342024
N          -9.37249072590178   -4.45060975253055    5.45552360896544
C          -8.61489865039136   -2.00646951875886    3.39424211698804
N          -8.25336329412534   -2.09262518134007    2.30695435896524
C          -9.65613024785512   -0.94722676557384    6.92735221325170
C          -9.67518336529209    0.37940292064026    7.42678562134363
C         -10.01891567314038    0.68039442769067    8.72243620484687
C         -10.36551473699092   -0.37762199566538    9.56801896379684
C         -10.34583819811938   -1.69937677573178    9.06149747871135
C          -9.99506953209820   -2.00390548796760    7.75142772929884
S         -10.81191770350163   -2.84536171808865   10.27825372396509
C         -11.02520970734144   -1.57285036349052   11.43003938404537
C         -10.76134084000419   -0.34388559551600   10.93474136208265
C          -9.28840946956373    1.30829831625869    6.35322948954363
O          -9.17330889947293    2.51510031822342    6.45269253348082
C          -9.07326604144211    0.47822503726101    5.15409044614058
C          -8.81015401141788    0.93545200902627    3.89324337944301
C          -8.64541886823602    2.24921726854903    3.40909841073648
C          -8.42592225543310    2.50214670077478    2.06442071919661
C          -8.29704539094194    3.85869503551613    1.74720523029788
C          -8.13601216325310    4.44088581896119    0.46140423029484
C          -7.89524045616295    3.63992239552220   -0.71455598320669
C          -7.11240557442450    2.52091098286722   -0.83512603803667
C          -7.03371252078667    2.03593256178875   -2.15284877260117
C          -7.75943219195467    2.76744445754253   -3.04602543368387
S          -8.55777284771997    4.08814236261002   -2.26479582986105
C          -7.90923185187985    2.57292291517730   -4.50952321207218
C          -8.20643743512604    5.82283481800911    0.40780383435680
C          -8.35346267344473    6.64868370897531    1.55469062790006
C          -8.46053531264443    6.07103957789425    2.84426693300150
C          -8.43778986031984    4.67787263905307    2.89936237599172
S          -8.68700154944133    3.72836936112131    4.34016075702457
C          -8.60483415882272    6.85588312076860    4.04698210554801
C          -8.10314882284256    6.57977710538503    5.29252269025545
C          -8.45679185274015    7.53235153398769    6.26373065993351
C          -9.24408330392285    8.53467516947220    5.78162640655088
S          -9.55058750238774    8.32283073420105    4.09132072429525
C          -9.80717264984760    9.70114310103830    6.50950724342669
C          -8.32929905008667    8.01230477143327    1.21122173898178
C          -8.20321206253871    8.24313378920690   -0.14070060585806
S          -8.06785088629091    6.76890354161691   -1.05569983234054
C          -8.22343513579390    9.50135962964375   -0.80178623304055
C          -8.12973173778624    9.56408057930180   -2.20998423883116
C          -8.22485467685267   10.79360155091282   -2.95979935637035
N          -8.19626752433551   10.73709440593342   -4.29946212432795
C          -8.05562797299409    9.58160390891440   -4.90758735519557
C          -7.91304355193194    8.36954470227704   -4.16368898733537
N          -7.95889312327065    8.40492226180185   -2.85306001299716
C          -7.73817311474444    7.12061280661497   -4.80580063835800
N          -7.60384172589767    6.11756571664653   -5.34382679347368
C          -8.05508097854653    9.56682591831882   -6.32413723220389
N          -8.06441437682872    9.54339857589862   -7.46984676310483
C          -8.38410274024428   12.03711790905299   -2.30274655511125
C          -8.46332404088307   11.97418148324395   -0.89363668855092
C          -8.38515823535358   10.74046555618509   -0.14642325370814
N          -8.49314091737821   10.95360855423808    1.16496199156416
S          -8.67490292194630   12.52801428651438    1.43305670849562
N          -8.62603577573049   13.02600648770255   -0.09275410887116
C          -8.50547430443946   13.28550190988772   -2.97860057489072
C          -8.35350099453385   13.53838182117984   -4.32122366130634
C          -8.60494312238188   14.87287616801761   -4.68308125700471
C          -8.58187128527560   15.42735705420131   -5.98555807388491
C          -8.32795551029079   14.60689483802009   -7.14542303494285
C          -8.74039737025263   13.32350024288787   -7.39279567233188
C          -8.27156688978121   12.80977556926156   -8.61474359666109
C          -7.49687733308230   13.68925677786052   -9.31025274101942
S          -7.34755340123800   15.19529477665342   -8.46615071126871
C          -6.83133855753301   13.49751960592338  -10.62328001439555
C          -8.79958851847706   16.79622776686679   -6.06199734884333
C          -9.06746182537098   17.61689835895328   -4.93661303404772
C          -9.14871684164755   17.04739881443767   -3.64364772413125
C          -8.89872766404635   15.68298140318181   -3.55587413008347
S          -8.91163488482322   14.73580633626812   -2.08917319515788
C          -9.49515320700692   17.82134547493286   -2.47188444970337
C          -9.01883661967952   17.68663448944555   -1.19674562868558
C          -9.62073739039267   18.56705949692918   -0.27774835850357
C         -10.57087958658784   19.36848394555643   -0.83269597269233
S         -10.72825934433508   19.05556562108649   -2.52913051154879
C         -11.41020709125928   20.40426038352594   -0.17665360847132
C          -9.19795305755530   18.97307210985254   -5.30233277805366
C          -9.04044465129748   19.20744829879863   -6.64429703082928
S          -8.79665637865573   17.71947164467007   -7.53499998507185
C          -9.12459467523671   20.47051398873740   -7.28997567630013
C          -8.65549249584806   20.82047856007117   -8.51399896785551
C          -7.75148710152484   20.14697840691473   -9.42760741492668
C          -6.67341370467586   19.38226309064080   -9.06915578996467
C          -5.79574156231742   18.77937212991904   -9.99102580730202
N          -5.07152390900740   18.24944761338134  -10.70688624970995
C          -6.27887254170844   19.19942169475649   -7.72604137662510
N          -5.88972882208918   19.09550239932540   -6.65122050025747
C          -8.02208552996244   20.66868958464936  -10.76009795506079
C          -8.86020648715762   21.80836931446614  -10.63793368494970
C          -9.21526132792231   22.00752670483369   -9.21993761058623
O          -9.86584033624605   22.90245268014812   -8.73152849403311
C          -9.24625655669574   22.55404051358634  -11.72601956661803
C          -8.79709244012513   22.15160418113816  -12.98746222306376
C          -7.97444751733788   21.00434134047741  -13.09776841673923
C          -7.57369414719152   20.25417795532029  -11.99852729787976
S          -7.55125190520505   20.69147241009095  -14.75127757609563
C          -8.45412339072796   22.07313595188952  -15.26986421670020
C          -9.05000326299857   22.74115759449909  -14.25858377892046
H         -10.02271796345804    1.70187843211921    9.07009137468954
H          -9.99899989155515   -3.02713363091293    7.41535269880823
H         -11.34045804701956   -1.82828340263823   12.42279428550057
H         -10.84027591414286    0.56453404919523   11.50392548203379
H          -8.72692924346493    0.19027109881294    3.11109046100557
H          -8.39977261261666    1.71348551229296    1.33386341340385
H          -6.56338979629725    2.09366825232908   -0.01490136761416
H          -6.45114335126570    1.17582319031425   -2.43146935005211
H          -7.24909605835902    1.77985976252146   -4.85190852142525
H          -7.66945070854558    3.49522921580766   -5.03771644033554
H          -8.93658161390669    2.30675003861498   -4.75868410097218
H          -7.46721223718143    5.73913967057598    5.50018055734989
H          -8.13954108788174    7.47489086884965    7.28963624298627
H          -9.50536418691167    9.66851685603180    7.55356190028517
H         -10.89571815979659    9.69875238306336    6.45766009290776
H          -9.45603045937210   10.63465685114127    6.06996701201977
H          -8.39702200720594    8.82557592382080    1.90891912104709
H          -8.04754605450821   12.77860625155893   -5.01303273479706
H          -9.40049776179270   12.77861884342632   -6.74250791858270
H          -8.49004437427238   11.81360149782718   -8.95523416065097
H          -6.92514754647724   12.46124867269928  -10.93826284250217
H          -5.77575616400719   13.75810160925098  -10.56108923994151
H          -7.28465319647122   14.13842339493922  -11.37998780031295
H          -8.23378620119637   17.00340940520159   -0.92976025810995
H          -9.35786669908727   18.60273620127024    0.76458508064388
H         -11.18864026433181   20.44238633831831    0.88718652579218
H         -12.46903630027327   20.18278622084442   -0.30867249835714
H         -11.22011400565852   21.38582580027106   -0.61058411747063
H          -9.34764904760203   19.77274121554461   -4.60026309497498
H          -9.70262565221184   21.22869322164293   -6.77081011588691
H          -9.87505253962687   23.42275884494909  -11.60704652474902
H          -6.95003003837963   19.38440461851443  -12.12511518854020
H          -8.48295590489358   22.30193366768138  -16.31745565063563
H          -9.65129223207900   23.62236959638759  -14.39088534520966
