113
 SCF done       -223.169899787901          0.000631255976
C          -2.50679539470409    3.30760339904561   -5.53326266710611
C          -1.37234453219705    3.18857835061260   -4.77279165417098
C          -0.10337558896183    2.85535770058598   -5.29273320561709
N           0.95497738464820    2.58815910042462   -5.64800438219936
C          -1.29122855356003    3.35554148075512   -3.37427241127587
N          -1.13373324251450    3.46700438163069   -2.24183657349739
C          -2.58119768856974    3.09474730984992   -6.97390357047823
C          -3.93040924590969    3.23410977540818   -7.38737175585067
C          -4.32617244913430    3.08981608293183   -8.69537367039388
C          -3.34311786256039    2.79816716776404   -9.64527197694835
C          -1.99735621796366    2.66378661822885   -9.22570509776348
C          -1.59807525046559    2.80641651929191   -7.90197660621468
S          -0.95431587718068    2.30883548157376  -10.56610759999378
C          -2.29913925187000    2.34166373323209  -11.65305913979214
C          -3.47832457409523    2.60576277941052  -11.04889232134362
C          -4.76514646799089    3.55121952488491   -6.21970126278295
O          -5.97118179433786    3.70712904815511   -6.21516758796024
C          -3.84547607933713    3.63750316694729   -5.06981907512878
C          -4.18326020230625    4.01137255358610   -3.80046392500979
C          -5.43136889609926    4.38666128695946   -3.25788837472076
C          -5.54613428634111    4.79563565178874   -1.93783307252677
C          -6.84167383094554    5.16398808061539   -1.56304520280493
C          -7.74814517024259    5.00960742294483   -2.64555039079532
S          -6.97318826021230    4.42472962259780   -4.08670465326961
C          -9.09219692904370    5.29690787343756   -2.51312091302169
S         -10.18801864573037    5.07336113402855   -3.88503800836309
C         -11.28837296472075    3.78278081355030   -3.21159529545686
C          -9.53050790559967    5.82280566363406   -1.28564652196815
C          -8.62698204406435    5.97356919542220   -0.19297545050847
C          -7.29091918167834    5.63349735844284   -0.29993740457919
S          -6.04474241972079    5.76547448003697    0.92877189593481
C          -6.88316255091951    5.84100664528499    2.53405023800095
S          -9.44170527402886    6.72183243073201    1.17379150456060
C         -10.92843404971190    6.83871926266513    0.27624918834553
C         -10.81203623375719    6.31889740793727   -0.99025446498883
C         -12.07202269508452    7.46037163039755    0.85057195511378
C         -11.99273309796073    8.04281701133667    2.13168666606955
C         -13.08925879919653    8.76637648545206    2.71535247653768
N         -12.94265991053030    9.33109708652982    3.91939268086060
C         -11.80307299732629    9.21326284632195    4.56330075567985
C         -10.71898924469966    8.48024170119433    3.99047272586027
N         -10.84303197367998    7.92488134927086    2.80514823118223
C          -9.48928373865368    8.33149473496589    4.67533242125985
N          -8.49346687856152    8.21055274372904    5.22905467812327
C         -11.68124909160052    9.82959515953727    5.83203163415881
N         -11.57593253454082   10.32630401256875    6.85912627497866
C         -14.32541457183705    8.92045274890186    2.05576321241222
C         -14.42841209227798    8.29816698958522    0.79105237058634
C         -13.31986657813636    7.57844100812204    0.19831128799386
N         -13.64089300252709    7.08001856811612   -0.99520464584837
S         -15.15934380569595    7.47304276732842   -1.34536841987165
N         -15.49546464219388    8.29626478800737   -0.00748026921206
C         -15.36142973662944    9.69868279021730    2.64501704455523
C         -16.62004442110421    9.92578953646267    2.14452318099374
C         -17.38883393945832   10.80867550860918    2.92438333922504
C         -16.69343202393523   11.24556321362667    4.08813224681992
S         -15.08802515253760   10.54214230504067    4.14519104670432
C         -17.26455667899328   12.12242048610606    4.99392947129683
S         -16.52283870202531   12.76609144611524    6.45369098942307
C         -15.37643803521971   11.48856514824753    7.03953755645669
C         -18.56669669267406   12.59274650131091    4.70748718487909
C         -19.25304273976736   12.15065369962165    3.54597109530704
C         -18.68327280743880   11.27656100458371    2.64470209966829
S         -19.57317077416513   10.77161423119341    1.19640089631134
C         -18.59598121051098   11.63674189288843   -0.07890100425437
S         -20.82269119935021   12.87442689651054    3.41610609271157
C         -20.58170346341350   13.74098919848644    4.92072370383074
C         -19.34131255863052   13.49163137156419    5.45897307200316
C         -21.59210096644602   14.62610095177313    5.37140845585148
C         -21.75855994171791   15.19163696655272    6.59597256439839
C         -21.16982067266595   14.94370327864000    7.89641716541820
C         -20.73936488399008   13.73698975702039    8.38274863799738
C         -20.26321006580012   13.54326515792615    9.69564655929402
N         -19.85450861866119   13.33474062798694   10.74763620782178
C         -20.80025057545510   12.52935959266254    7.65833510719315
N         -20.86135333065069   11.51338640981962    7.12780520130747
C         -21.35983385947035   16.15157316857202    8.69188667686372
C         -22.25009918583830   17.01605101692985    8.00309892132876
C         -22.61092422758208   16.41230355561568    6.70880215540500
O         -23.38680576582007   16.82794883460217    5.87982172217713
C         -22.64996221773093   18.22465390263888    8.52080967729116
C         -22.13947801130050   18.60299063562732    9.76622964016839
C         -21.24037618201844   17.73939364795967   10.43801948265767
C         -20.84254029878125   16.51203322628288    9.92061058766878
S         -20.72813599517868   18.41846259664461   11.94994485019160
C         -21.70449284057016   19.82036284287165   11.67933951292842
C         -22.38423117892479   19.79028956658232   10.51241467745704
H          -5.36235610211677    3.20178925229819   -8.97455547763595
H          -0.56015006646455    2.69638935064081   -7.63633074935344
H          -2.12019722587415    2.15869253041719  -12.69479986479155
H          -4.41941853329972    2.66632975078157  -11.56484432643132
H          -3.38235913772393    4.05887165068523   -3.07230664613813
H          -4.70492932416132    4.83215515613867   -1.26797162502585
H         -12.04809530525755    3.61258617604429   -3.96704222517747
H         -11.74505965970802    4.11433355398442   -2.28589931617418
H         -10.70892019513575    2.87798713482138   -3.05449222190297
H          -6.11032457041730    5.61512613638369    3.26323952460980
H          -7.66365353325983    5.08935278361365    2.57575494523487
H          -7.28313511553348    6.83220454511139    2.72093245743349
H         -11.62338343204285    6.34763871172266   -1.69451033401221
H         -16.97380839568196    9.45214488088525    1.24715124256135
H         -15.22946647066339   11.70443114140060    8.09385667665442
H         -14.42673956429218   11.54381096668149    6.51709384470952
H         -15.83486750604346   10.51307076384250    6.92102311772278
H         -19.04203741621918   11.36929284508961   -1.03083862246321
H         -17.56043821815108   11.31612324274026   -0.04413966752346
H         -18.67464836788308   12.70751584778391    0.08344684298307
H         -18.96675176703158   13.97363408384125    6.34400975929054
H         -22.29581462966436   14.96278603255353    4.61576198268342
H         -23.33478292642928   18.85907549789037    7.97988641261675
H         -20.14969325761800   15.89007871677740   10.46316415736410
H         -21.70783706295843   20.59336799346630   12.42305772053456
H         -23.03911607452504   20.57369015170100   10.17639394739887
