94
 SCF done       -196.645529080282          0.000696824233
C          -0.50963251142456    2.96588780817924    5.57022962196301
C           0.31560841632311    1.98100204815721    5.09295614810999
C           1.59118580506122    1.69281555068726    5.62314700342738
N           2.63527955713005    1.40810471393498    6.00597098555870
C           0.03826068160858    1.13049683782644    4.00203953314249
N          -0.10569676242097    0.40682321656506    3.12192432115050
C          -0.19083612149325    3.87666209757153    6.66437101410396
C          -1.25236881312799    4.80649907617073    6.80752941764602
C          -1.24611812243948    5.80169409100276    7.75513735268142
C          -0.14095323127434    5.88284482294231    8.60732619024891
C           0.91282275968444    4.94859186260787    8.46115011439827
C           0.90734254738076    3.94382931341048    7.50014755388217
S           2.17032445838404    5.23347630867841    9.62166368650672
C           1.29475537219736    6.57241992340046   10.27835160601104
C           0.11411367841876    6.80248183020627    9.66308628123865
C          -2.29016063535549    4.50702746062559    5.81282894339135
O          -3.33394937974090    5.11758647766585    5.64736687586411
C          -1.82629313851079    3.32707340775474    5.07327668824722
C          -2.54410873351401    2.65130193062868    4.12191210079626
C          -3.81315097902111    2.91739560880544    3.58236817317992
C          -4.40406032089214    2.06629953721664    2.64045967064342
C          -5.64542485027958    2.51144675432209    2.22909720515457
C          -6.01000618939437    3.72847664850102    2.85318608380874
S          -4.84123974498927    4.30165751492989    3.95112816353038
C          -7.28528975420835    4.10258738028137    2.36360902086273
C          -7.72681564067606    3.13562393710322    1.44169300476684
C          -6.71208005163831    2.10173611606475    1.32754714003800
C          -6.75768120478913    0.98598830079438    0.54524938222259
C          -5.71180658799996    0.03859484241838    0.52318782065610
N          -4.87041989549910   -0.73949447591262    0.50397528930588
C          -7.85650189359009    0.69810948075617   -0.29252026007350
N          -8.74403345633664    0.45607452490288   -0.97684786947692
C          -8.97947366898928    3.42703022421416    0.90486101774411
C          -9.49453881407969    4.60849361103998    1.40494825169306
S          -8.41173758555590    5.36952142269883    2.56214783944098
C         -10.74352537714189    5.21513901355224    1.06757567544203
C         -11.15185385999283    6.44365311383341    1.58573574071775
N         -12.27888111215633    7.06887631724899    1.29529506798372
C         -13.15698692188729    6.54530489288150    0.45249393010449
C         -12.89174827502780    5.28257851054964   -0.14465379669468
C         -11.66043911276959    4.61138731920268    0.16639300032589
N         -11.55967341900957    3.44890864058824   -0.47716115291577
S         -12.87203998377637    3.22731777653431   -1.37452896181985
N         -13.63839680182244    4.58661599968087   -0.99909465264687
C         -14.33158871560877    7.30246063917790    0.17267904543725
C         -15.39090174951859    6.98382814284333   -0.65718682868869
C         -16.33870553709064    8.00349857879363   -0.68554054571203
C         -15.98693622332133    9.09953150123099    0.12982527904002
S         -14.49921162156500    8.87047551377088    0.93194442977232
C         -16.99578300024760   10.08889952093515    0.00901566800400
C         -17.98217456745956    9.61555980924035   -0.87908547041419
C         -17.60081816795533    8.29253918664540   -1.34420327978447
C         -18.27899265025193    7.51347762848802   -2.23506831391177
C         -17.82139862281633    6.23760184564527   -2.62679914735816
N         -17.46069536913119    5.19757254673152   -2.94679946633054
C         -19.49024678020893    7.94653551922492   -2.81495413655337
N         -20.47618069959368    8.31015575337122   -3.27412361183227
C         -18.99576882396617   10.53755261466538   -1.10452368888458
C         -18.79626717009893   11.71730160490347   -0.40291391124451
S         -17.34039054123911   11.65294974947236    0.58232940387795
C         -19.60756089656221   12.87483939900305   -0.37224015281508
C         -20.54347395995842   13.27597025040199   -1.27397466754687
C         -20.86040649991172   12.86751531382283   -2.62802703580746
C         -19.98564354346591   12.38685356549108   -3.56776565649277
C         -20.33217558228872   12.14610816541805   -4.91415633921309
N         -20.55659942450287   11.93859957552677   -6.02005804956594
C         -18.61381726924229   12.17163958197962   -3.33401823389622
N         -17.48451533598658   12.00941113336827   -3.20314887036193
C         -22.21616171228047   13.32503339625093   -2.90863259999064
C         -22.62777651458458   14.19971317858113   -1.86914410713154
C         -21.56755215837327   14.27658028275122   -0.85042152521362
O         -21.53379602847282   14.95856123225488    0.14785586388383
C         -23.85120337416418   14.82601789802768   -1.87756317400966
C         -24.70978076199810   14.56811074043070   -2.95056579926781
C         -24.29598251411545   13.67807600509008   -3.97196776509303
C         -23.05570740722449   13.05049729048548   -3.97006257372531
S         -25.52253494855778   13.49897218611218   -5.18486659121123
C         -26.55489629537730   14.59806875447520   -4.33806565448480
C         -26.01514712512150   15.07923427457918   -3.19684015329714
H          -2.06952423938725    6.49430068365812    7.83594662916821
H           1.73405817056863    3.25686392571612    7.43230623042356
H           1.72551589923954    7.11339389282423   11.09838286403461
H          -0.56354845257466    7.59120773316288    9.93559571908057
H          -2.09247317147595    1.75707992400911    3.70937129271301
H          -3.91853817748332    1.17077192924028    2.29458186896598
H          -9.51207175485338    2.83141964181904    0.18622437595941
H         -10.51334982431440    6.96795291632346    2.28534648687059
H         -15.43831790031869    6.05721669057227   -1.19984399360188
H         -19.86147451786136   10.35953436639489   -1.71612133746755
H         -19.52303059281673   13.50100442523225    0.51073879040071
H         -24.13664807380863   15.49425899490961   -1.08004575783327
H         -22.78526359923399   12.37211446813504   -4.76237414965631
H         -27.51880893006587   14.81901516755105   -4.75370133522750
H         -26.51093357386256   15.77202107287080   -2.54130024475278
