101
 SCF done       -215.537139551708          0.000945442877
C           0.42430869880820    3.49391961202322    3.11871709505001
C           1.03961680604801    2.42303402319414    2.52460435706491
C           2.39292759611824    2.07721734812368    2.72658060442462
N           3.48393333149907    1.74198863807845    2.84761273556205
C           0.43700179524884    1.52803242410511    1.61543873509731
N           0.02466211964853    0.76531212756218    0.86232693618070
C           1.06767019260251    4.44731874807786    4.01555032447729
C           0.13375220583448    5.46185851510487    4.34918247596607
C           0.44178214029885    6.51271025441129    5.17973234257877
C           1.73334755865621    6.56504896837807    5.71157547564763
C           2.65941247025935    5.54707335363683    5.37684336278695
C           2.34787244484674    4.48589491402889    4.53421741835931
S           4.18935358032809    5.81119149378982    6.15001152386667
C           3.59073758332553    7.25074616252440    6.89830041275763
C           2.30520554477618    7.52856900946340    6.58888999468622
C          -1.14157372648638    5.17975590478648    3.68044815933107
O          -2.15521969738595    5.85586064913552    3.73366205149485
C          -0.95580524625885    3.91781260799444    2.94989804188896
C          -1.93826939572331    3.23029556508240    2.28890476820009
C          -3.29029717493267    3.55521039584727    2.08086766890126
C          -4.16338220410483    2.67377116353476    1.42916833558682
C          -5.44301230699662    3.18075371991371    1.32142226123536
C          -5.55361194420406    4.47849746601293    1.88219534680038
S          -4.09603108241452    5.04744368135324    2.55778136000857
C          -6.88951189140602    4.91231632343191    1.73241608033698
C          -7.62569012025443    3.89573819744128    1.08218791525898
C          -6.74092877379150    2.77681394204743    0.80369577319557
C          -7.06730278412808    1.59958720970791    0.19788681758539
C          -6.12254857971320    0.57170414861066   -0.00868037552300
N          -5.36179142785629   -0.26939944362472   -0.17584075547636
C          -8.37576855986815    1.32664098941725   -0.25513331001326
N          -9.43701643514183    1.09769488374944   -0.62401756500759
C          -8.95931750442957    4.22763620560983    0.90246819682099
C          -9.25189715057341    5.49217378697924    1.40503759984669
S          -7.84534350673220    6.28043097953617    2.10356725463739
C         -10.51760051894825    6.13006683542334    1.41203150504894
C         -10.67594187183686    7.43293984498066    1.93835393203776
C         -11.95576830719433    8.08924066444389    1.99882912004204
N         -12.04208345416161    9.32058377902805    2.51240537319195
C         -10.96588549651299    9.92529683009357    2.95460143652636
C          -9.69237031142264    9.27252210889591    2.89377694687303
N          -9.58974954886531    8.06364301878765    2.39632969799194
C          -8.52948697023355    9.92684356125124    3.37069631421507
N          -7.60871379842672   10.48197324090615    3.76540590357645
C         -11.07865748213094   11.23051411149180    3.49431423415187
N         -11.14051545932828   12.28504361634132    3.93647498499929
C         -13.14503315026232    7.47497233988306    1.54408620791013
C         -12.98710417215402    6.18200503834238    0.99053176967826
C         -11.70039749753309    5.52521092906757    0.92288449406524
N         -11.80053005964357    4.31724973044255    0.36710637479925
S         -13.32587640190978    4.03219755544346   -0.03015405434424
N         -13.95180271958923    5.41572125746537    0.48045595195857
C         -14.39721461096838    8.12656203774601    1.67010529513860
C         -15.64195927592843    7.61808569181193    1.31075036794559
C         -16.66737215802996    8.50156255993644    1.60872942742587
C         -16.20404599051973    9.70239380036599    2.19261029361695
S         -14.50413823666326    9.73187888221095    2.37527758298231
C         -17.32209429454593   10.51952720131904    2.47303373538323
C         -18.49322811288991    9.83467927341279    2.07810892161357
C         -18.11683254808973    8.55272748232020    1.50905692085528
C         -18.95318570973395    7.61452331753073    0.97927096938274
C         -18.48003185519350    6.39693090812623    0.44620142814382
N         -18.09908223382553    5.40266235172074    0.02107593233576
C         -20.34963184500389    7.81433870268828    0.94448783879579
N         -21.48275415433013    7.98975501965902    0.93258576536095
C         -19.65123367822903   10.55928140356714    2.31706351049908
C         -19.38615238609491   11.80096465026713    2.88100361474686
S         -17.66337210049554   12.04600855212069    3.14313031991898
C         -20.29211224299521   12.79784437912638    3.30442329079507
C         -21.60869360576055   12.95241160947929    2.99609678240456
C         -22.47658766440507   12.38260174911977    1.98636293054669
C         -22.11702712836811   11.98591245836210    0.72401070840534
C         -23.03904532792214   11.57865072111675   -0.26334082726381
N         -23.74815284975442   11.25097310524941   -1.10364038872161
C         -20.79803748084962   12.03332289356443    0.23374591086103
N         -19.73914530282353   12.07430987966958   -0.20891252066241
C         -23.84860746765055   12.56370137839517    2.44722250212161
C         -23.84296649652710   13.43501366270029    3.56789324658793
C         -22.45390815901651   13.79065450243249    3.89951954061864
O         -22.05560915090440   14.55242569665163    4.74982725179481
C         -24.99810662624067   13.82181425496791    4.20437048688573
C         -26.20942019216430   13.31620805404880    3.72288702228616
C         -26.20150223461370   12.43313085024816    2.61517812734172
C         -25.03497620315335   12.04859379339657    1.96380949120337
S         -27.80786425524147   11.92305509603969    2.20688192629300
C         -28.46430395939151   12.87894264296273    3.48999396600962
C         -27.53035320241274   13.55078441625956    4.19818111475159
H          -0.29242079049459    7.26863429027907    5.41135386806168
H           3.08877606954627    3.73596956241144    4.31351662755921
H           4.24945343374296    7.80926791064691    7.53455367324913
H           1.76664009694877    8.38121757068984    6.96084763490737
H          -1.66581047974853    2.27278043180762    1.86128318818602
H          -3.84192515805880    1.71315259979522    1.06678481070166
H          -9.70886163663403    3.61224517209036    0.43996834668055
H         -15.75241177816939    6.64736006217996    0.86333628568591
H         -20.64687287193721   10.19587585047072    2.14000463130143
H         -19.91384639473780   13.50445300109764    4.03751033158352
H         -24.96704355764325   14.49243362239698    5.04897150005592
H         -25.07374081417745   11.36597475398712    1.13091623006112
H         -29.52677041399035   12.87805724279660    3.63782858858765
H         -27.75230429885060   14.19312651865443    5.03101218424986
