108
 SCF done       -250.645410173928          0.000885970656
C           1.08398510545186    3.79681735397571    2.39329145708984
C           1.56012477405879    2.60158384707611    2.86376791359004
C           2.92821651815663    2.25578375048726    2.90201884116000
N           4.02223344074277    1.91426480966100    2.96146773051039
C           0.77229868279813    1.53690566781692    3.35083915476535
N           0.20142373837034    0.62367940334777    3.74925381814554
C           1.89752752000054    4.87293478120948    1.84016432660996
C           1.03893679639015    5.90268957163619    1.37510227319262
C           1.50882933163672    7.05560829838881    0.79239681663161
C           2.89275776589179    7.20396313836856    0.66540170324746
C           3.74371326363746    6.17403446292343    1.13632301221135
C           3.26787538206865    5.00675137136931    1.72264829570929
S           5.41220494890475    6.57261015444110    0.88217971198049
C           4.96794980588700    8.08068904318912    0.16234874166128
C           3.63328371694282    8.28508494202254    0.11078572577802
C          -0.35343748388946    5.51901895382081    1.63076243476780
O          -1.35069538683321    6.16105156949231    1.34411837057524
C          -0.30641480654317    4.21648773383678    2.30996849063689
C          -1.38390485336162    3.55435817536253    2.83021912774135
C          -2.75126979748025    3.88755233944068    2.81010224759754
C          -3.70426059181904    3.10234068992175    3.46702553127078
C          -4.98752075214254    3.59603666728968    3.32060889161305
C          -5.02197861569536    4.77080534261845    2.53250505129320
S          -3.48336371988668    5.26896418440886    1.99860117163355
C          -6.37206235283495    5.20107907915613    2.44993660252120
C          -7.17954538744087    4.30180537245477    3.16815549476797
C          -6.33304138122979    3.28979134665264    3.77606247120176
C          -6.72871648946501    2.34056835769170    4.67349078447835
C          -5.83663884461922    1.40439776635291    5.23709000315058
N          -5.11637801859886    0.63921052203746    5.69386992660613
C          -8.06262614821186    2.30835267711700    5.12718349502855
N          -9.14684181036844    2.35886179023981    5.49938228763102
C          -8.53320789459093    4.62450716863691    3.12255150113844
C          -8.76612161435341    5.78539468389384    2.41069703445963
S          -7.28249610463279    6.45886344226837    1.74744658147058
C         -10.00996997970038    6.47830579368238    2.22152094915403
C         -10.08879248838260    7.31007738759678    1.00109757061403
C         -10.38148707334236    8.67335214585183    1.05129216283290
C         -10.42085307329487    9.45249427310228   -0.09765653850946
C         -10.15180478008373    8.87815138519385   -1.33854042912688
C          -9.84867346553104    7.52173776700268   -1.41424745989676
C          -9.82026135248659    6.75855277011806   -0.25221844222179
F          -9.54900913908807    5.45216018215606   -0.34578322135411
F          -9.58004478871019    6.95902127131339   -2.58894004482081
F         -10.17300343145247    9.62359388022788   -2.43637111500492
F         -10.71219705922976   10.75042076464233   -0.01443763501528
F         -10.63743973528903    9.24666515510755    2.23116373075230
C         -11.04076238928460    6.40930945485188    3.12353051736027
C         -10.86650746664829    5.76643539321778    4.44557353407337
C          -9.85643913196229    6.15428646361044    5.32619893281985
C          -9.71472870986325    5.56725902285012    6.57653632016553
C         -10.60582991227687    4.57841385458258    6.98777222975616
C         -11.62887448626122    4.18048863534358    6.13201666113631
C         -11.74377510387148    4.77126773818838    4.87843744617991
F         -12.71468516450535    4.35454716738913    4.05809166168035
F         -12.49609329822598    3.24746265488581    6.51186538312500
F         -10.48303134070206    4.02956666448706    8.19024647701642
F          -8.72619865640707    5.95203400489441    7.38508266255319
F          -8.99431694455508    7.10872302170032    4.96107567539439
C         -12.33932187363871    6.97227552716581    2.88593375346808
C         -12.95539428199978    7.24277299632150    1.67822315432139
C         -14.19959371267960    7.84353908276981    1.84693081827538
C         -14.55936304987133    7.99540078635208    3.19647006712089
S         -13.34180847280229    7.44432330642708    4.25238216779280
C         -15.86042473657835    8.55714742558764    3.25039642790835
C         -16.31569691594976    8.77119115905226    1.93414798309437
C         -15.26730110583214    8.37174564209076    1.01161590325944
C         -15.22241781319591    8.53692599811089   -0.34205110663350
C         -14.04761317491569    8.21981285928303   -1.05445725638880
N         -13.05537073101665    7.98230030906526   -1.57893155541719
C         -16.30241295728558    9.06437021123432   -1.08075093083406
N         -17.18660864924222    9.47693795062950   -1.68157527750497
C         -17.60385390128679    9.29684730031532    1.88955499606021
C         -18.12676343248867    9.51405576113933    3.15410251828776
S         -17.00509664424860    9.01901118989242    4.41906002347606
C         -19.44187677608728    9.96011678871132    3.43881287266346
C         -19.95888628879394   10.45527902764173    4.59175510247833
C         -19.35103909300723   10.96749022173032    5.80383194115951
C         -18.17753262612108   11.67120604827354    5.87641291070180
C         -17.68519656416647   12.25407055626328    7.06142791976537
N         -17.24043660324389   12.73133237820360    8.00516554162806
C         -17.38791331676750   11.96353626797787    4.74562677408977
N         -16.74485317834151   12.24064621120096    3.83597112835804
C         -20.34821433488651   10.86780955007630    6.86061914467660
C         -21.60325186356732   10.55839140350310    6.27245658885467
C         -21.43472716230123   10.39101854095970    4.81839685302020
O         -22.28238967378238   10.18524491840482    3.98266362620422
C         -22.75206521957028   10.43701360248352    7.01721920759775
C         -22.65630499554778   10.61723330807122    8.40043806849217
C         -21.39654980583738   10.91397950250515    8.97708176863953
C         -20.23513263643832   11.04657800381621    8.22512941227956
S         -21.51738137359401   11.08240235158958   10.69881674983083
C         -23.21619520352103   10.76626639771076   10.63538375286002
C         -23.67988675401574   10.54203038520225    9.38646176373313
H           0.82826740338748    7.81849910397821    0.44750646921351
H           3.95803193019049    4.25485255246600    2.06666796427091
H           5.74660717710888    8.73243375012217   -0.18344594546033
H           3.17406062845842    9.16500598984071   -0.30181671491034
H          -1.18568762120198    2.63246915647470    3.36367937788402
H          -3.43916079731356    2.21633885366941    4.01665600361610
H          -9.31521066177297    4.02245058589653    3.54397234925968
H         -12.53960188917470    6.96873981046270    0.72773332819062
H         -18.14409257969202    9.53508605733543    0.99106274548403
H         -20.16259411525479    9.80284502612118    2.64120991059616
H         -23.69578702871243   10.21001150077888    6.54638370494718
H         -19.29494425004692   11.26612130202474    8.70392235897785
H         -23.77184049827554   10.76708716116947   11.55295412832919
H         -24.70750254193142   10.32852086930658    9.15497745716213
