93
 SCF done       -197.622209424774          0.000996516900
C           0.79421346593380    4.92776790312224    1.06739744970732
C           1.50470441641821    3.98366585957684    1.76095115097893
C           2.91376942102649    3.90108377446688    1.76642605389226
N           4.05410114829841    3.78039142706525    1.81510371293240
C           0.95307679043074    2.98092892173427    2.58655093418817
N           0.58489041135034    2.14610358178179    3.28381749128052
C           1.37180085948997    5.99952588784350    0.26493935807542
C           0.32460249504666    6.83336783391956   -0.20549135464022
C           0.55138309022705    7.94109018249879   -0.98702715232041
C           1.87414564314095    8.23927037895170   -1.32661218197392
C           2.91333125248626    7.39823549028722   -0.85892992670976
C           2.68391805121291    6.28016534753417   -0.06520348603152
S           4.46348899950938    7.95169431890195   -1.40548669546962
C           3.72514053691857    9.27641906395851   -2.23607292236010
C           2.37977966354003    9.31033990941443   -2.11545199762971
C          -0.95997773990877    6.30648532228355    0.27050577815500
O          -2.06355906259034    6.78413054203122    0.06566644516366
C          -0.65088463734055    5.08532616235276    1.02783206333383
C          -1.57223647234491    4.21617719817155    1.54485324824929
C          -2.97756629931856    4.28158687602354    1.55684210240698
C          -3.75163055227650    3.25048566877134    2.10155713938016
C          -5.10662876312441    3.51322942720755    2.03072685968784
C          -5.37795297648674    4.76732677735547    1.43529699981848
S          -3.97325600767115    5.60066956250847    0.94877896836128
C          -6.78381632345222    4.94881250922754    1.41635367069829
C          -7.39685187365393    3.81586890229176    1.99538752333705
C          -6.36336748237928    2.87774441804058    2.39880742034737
C          -6.53339151555991    1.66318756377939    2.99402520514278
C          -5.44364652068994    0.83196935027867    3.33201409080070
N          -4.56348378610428    0.14755911974578    3.59774299692646
C          -7.80894592317153    1.14959717515985    3.31394102247672
N          -8.83888419644176    0.72232234661124    3.57956538594540
C          -8.78544614516804    3.90712364841532    2.01969597137594
C          -9.21878075954612    5.10100191248784    1.46835334301735
S          -7.91249916411686    6.12339602711541    0.91086413375980
C         -10.55805809013007    5.55529742652598    1.32109348478853
N         -10.76359572037101    6.75104892186398    0.79518092988213
N         -11.94547735673541    7.26380666957698    0.61478585020298
C         -13.06869392595918    6.64031734988223    0.92848391098904
C         -12.99399309528146    5.33595327327789    1.50774015224940
C         -11.68755203732830    4.77383049911487    1.71750862884018
N         -11.85503048936736    3.58760667608851    2.26289265767407
O         -13.16777356069531    3.42176789368424    2.38499525692783
N         -13.87296369174036    4.45634158162443    1.93937573008005
C         -14.30162366256089    7.30162897250982    0.67602597839251
C         -15.58315361019921    6.81904243972005    0.87939406731930
C         -16.54060239539350    7.75838026998227    0.50736873088387
C         -15.97061162130086    8.95716805551441    0.02583515469876
S         -14.26640743115588    8.92393427563909    0.02120767725080
C         -17.02090617211933    9.84400222549658   -0.32308792547529
C         -18.24940287722038    9.20418041595320   -0.06730922368747
C         -17.98836313322426    7.87220348031239    0.45344030116691
C         -18.91862485018805    6.93150983866594    0.78348691242149
C         -18.57019142670198    5.65540504147725    1.27570354212767
N         -18.29753890826195    4.61938071968122    1.68276236418422
C         -20.29977723257433    7.18718508500849    0.64527149302247
N         -21.41881033419949    7.41242532120684    0.53605981421441
C         -19.34723671948090    9.98482973702025   -0.40650003427641
C         -18.97321057243810   11.21730905748326   -0.92064446917726
S         -17.22728705348342   11.41214174791017   -0.95101332028818
C         -19.80336306896841   12.28177656520921   -1.34726958267299
C         -21.10436038161865   12.23411201577585   -1.73685628925607
C         -21.99423117567502   11.15056629373046   -2.10657228129904
C         -21.64206170104641    9.96821083791361   -2.70360096266218
C         -22.57305307849359    9.02020634059538   -3.17911027106669
N         -23.28530606594304    8.22003863107627   -3.58976563391031
C         -20.31696790348702    9.60175002842660   -3.00861173767368
N         -19.25759299110742    9.26815011216854   -3.30026720214797
C         -23.35684530466357   11.65553210273407   -1.99172348788630
C         -23.30976098202358   13.06181990553353   -1.80186024971648
C         -21.90547137922299   13.49591991430620   -1.72751954616881
O         -21.46982761708277   14.61937266687064   -1.62871545530753
C         -24.44669629218024   13.82733168553359   -1.69694670888108
C         -25.68180832007907   13.17637623332180   -1.77139728369326
C         -25.71622560156484   11.77038320116817   -1.94363729451974
C         -24.56805316598395   10.99528387683188   -2.05736136916517
S         -27.34681815047873   11.18276468912076   -1.99411601501681
C         -27.95753342631513   12.78823517820390   -1.79490735971703
C         -26.99162717323669   13.72732903108895   -1.69143366608517
H          -0.26757764644148    8.55633520581672   -1.32602625912240
H           3.50985453037612    5.67153374409129    0.26254150743362
H           4.35460663341183    9.95939286725778   -2.77275036454692
H           1.75360741518963   10.06040100159862   -2.56349445236836
H          -1.19095306200273    3.31853180305091    2.01688033272723
H          -3.31097771722872    2.36390457714458    2.52227287985124
H          -9.46417661441419    3.16892189723660    2.40819032591032
H         -15.77658539413838    5.83804067439981    1.27549595468894
H         -20.37267755418574    9.70049643057475   -0.25546208386940
H         -19.37377946542479   13.27788696796328   -1.30008658218892
H         -24.38416729464922   14.89586898741903   -1.56140155454039
H         -24.63973801035159    9.92672040518627   -2.17626834099504
H         -29.02014203686628   12.93234746068528   -1.76617527088420
H         -27.18348407936991   14.77707130231597   -1.56235216160843
