115
 SCF done       -221.983284362035          0.000495942405
C          -2.76871124402369    3.02821571103398   -2.36149733123905
C          -2.35581111836355    1.79158015391415   -2.78391105983338
C          -1.15338940181676    1.55760367304859   -3.48360480959570
N          -0.19005893179764    1.30057236818205   -4.05252356382388
C          -3.07765442040711    0.59156232867588   -2.61553042604132
N          -3.60962585631261   -0.42242987932958   -2.52562388086709
C          -2.05717828596816    4.28240650251901   -2.57925627422224
C          -2.86890110100587    5.35048293237046   -2.11817335317138
C          -2.47271053687110    6.66535902951925   -2.16067675104592
C          -1.20896308241591    6.94133247484719   -2.69123588126308
C          -0.40581878744631    5.87231988604835   -3.15863723583956
C          -0.80826331086681    4.54202599457176   -3.11089884991995
S           1.11170543117893    6.44978213027110   -3.77059234476282
C           0.66806290166154    8.08118385773377   -3.40294416562518
C          -0.55777483851845    8.19702256214464   -2.84741645710192
C          -4.13593454364809    4.80811569603416   -1.61506354581411
O          -5.10337715483854    5.45488911383012   -1.25411503021079
C          -4.00413427310541    3.34299924902925   -1.66234046143643
C          -4.82279695062424    2.45002408766626   -1.02494957209677
C          -5.96229812718282    2.70245338775026   -0.23755604042033
C          -6.56227371518949    1.73279976465422    0.56906075694731
C          -7.61075596381851    2.19873341885407    1.35081348453700
C          -8.28035837241455    1.37736041643934    2.36190072015517
C          -8.71064407021272    0.09864384041588    2.04181169769633
C          -9.35837330597931   -0.68028897617432    2.99628703327757
C          -9.57194618228995   -0.18196054139362    4.27759708852821
C          -9.12049300385196    1.09395888286083    4.60172506008263
C          -8.46606292598949    1.86589923731299    3.64868665604651
O          -9.28587945735833    1.68127288068359    5.81967839751981
C          -9.92827369351722    0.96031214893370    6.84273986075475
O          -9.75216158183727   -1.91354120772173    2.57862195996323
C         -10.39235998574180   -2.77126526454452    3.49097540843458
C          -7.85791355592303    3.55882111513814    1.11843434881110
S          -6.75231315420724    4.23444523961513   -0.03229293570684
C          -8.84970606471441    4.42412839253848    1.66459309714752
C          -8.61200681705324    5.81960347925318    1.70664291205504
C          -9.59285026794462    6.75594783507374    2.18767290900986
N          -9.34682435663286    8.06961214062148    2.09401535391247
C          -8.21306160722034    8.49471564774261    1.59954591902960
C          -7.18633434965977    7.55697643085585    1.23645851163929
N          -7.41821962790141    6.27315994900673    1.31042408062840
C          -5.91147304355915    8.00368575352566    0.80744082278173
N          -4.89754613457136    8.40189811670730    0.45334567032849
C          -7.98950343523039    9.88589720202183    1.45269645821630
N          -7.76695948632607   11.00039667739856    1.31135456462538
C         -10.82946896454864    6.34420639360611    2.73085521604204
C         -11.07366348637420    4.95180471389347    2.69246355360348
C         -10.11742778118552    4.01881108568328    2.13230719268518
N         -10.60236197640713    2.77679291686505    2.10406583159330
S         -12.06246999057244    2.76394845315219    2.74923020675472
N         -12.18912488880768    4.32969042032597    3.07956571367146
C         -11.76246106020836    7.29545792955955    3.22639833424884
C         -12.99837989023604    7.03990469507070    3.79780802479626
C         -13.67664590076449    8.18157955399003    4.21932992765584
C         -15.00862537628124    8.13461114834374    4.82554666654213
C         -16.01631983185276    9.00518523869173    4.43099577262456
C         -17.23705481296296    9.00897783624788    5.10067354603792
C         -17.45527309257969    8.14001296729102    6.16679689136173
C         -16.45572804486635    7.24770224982720    6.54286762706371
C         -15.23626510790618    7.24324433580283    5.86448668259837
O         -16.56370766596972    6.35311901180679    7.55178604881086
C         -17.68124309371533    6.41808017146173    8.40793262868334
O         -18.14583696855171    9.91726716357274    4.65485800812214
C         -19.43018527070835    9.93846592007795    5.23069517376724
C         -12.94607819695659    9.35000526074075    3.97733403943284
S         -11.43493814022339    8.99550498282818    3.18302071341449
C         -13.25243743945037   10.70712320002818    4.22879900575671
C         -14.10454960312086   11.27424544306324    5.12792376396828
C         -14.79691707739326   10.76328493153864    6.28955851461126
C         -14.34252262448061    9.78867412115002    7.14142478100965
C         -15.02676147866148    9.39558280400851    8.30684554390963
N         -15.57021214822853    9.04606958416588    9.25648270780306
C         -13.10932945979045    9.13158211655630    6.96390737742638
N         -12.09211440103901    8.60831218408132    6.87019972088572
C         -15.93776724414692   11.63926261674903    6.52977487389209
C         -15.82652560043941   12.77556965791510    5.69021760885093
C         -14.61356756982248   12.64913580416659    4.85940994209049
O         -14.15743525979595   13.45351132364459    4.08049777069381
C         -16.76356115896172   13.78052963189579    5.68309531309056
C         -17.86667366840090   13.65044377823644    6.53196471345839
C         -17.96892972669117   12.51018873358200    7.36229914840569
C         -17.01387937468549   11.50108445643763    7.38229161694110
S         -19.42729282631794   12.54895952175113    8.30578510139796
C         -19.87408329101546   14.06494328775790    7.59930159077544
C         -18.97932361694714   14.52445811641907    6.69928973719601
H          -3.11392347393399    7.44834011382627   -1.78584520065033
H          -0.15481501284873    3.76468455479157   -3.47061792497099
H           1.36549707586490    8.86412178737806   -3.62936933445627
H          -1.00140889247421    9.13007083361199   -2.55109181731542
H          -4.54314175258592    1.40345956914074   -1.06117763470034
H          -6.19991664992960    0.72043539788578    0.61435319446298
H          -8.58036608541979   -0.30082314341089    1.04987622542112
H         -10.08176398119669   -0.77914095892435    5.01447875953733
H          -8.11516829527382    2.84597850054784    3.92980651273597
H          -9.93405099673054    1.62122574927176    7.70791581134229
H          -9.38414469488507    0.04395405579842    7.09304594266656
H         -10.96048326025066    0.71111158226581    6.57434342647332
H         -10.58959855507513   -3.69017338189406    2.94125146729917
H         -11.34126964128260   -2.35225295842966    3.84231228727137
H          -9.75239265263071   -2.99706474412692    4.35023650257156
H         -13.38998523451515    6.04366314769079    3.88928097921849
H         -15.87673944235365    9.68691382270666    3.60777207124552
H         -18.39156170496731    8.15754942647536    6.69794563476278
H         -14.46608754185444    6.56381836591226    6.19149392557535
H         -17.75125178097993    7.39740109144235    8.88947184407484
H         -17.51008282573363    5.65773832390166    9.16757193405204
H         -18.61184945471286    6.19410616095142    7.87619855441750
H         -19.97315758162308   10.72159586970683    4.70407434800566
H         -19.39449606726958   10.18230123345529    6.29689871386287
H         -19.94700494055002    8.98370321787730    5.09142036839984
H         -12.77254651200893   11.41721801461867    3.55968075832608
H         -16.65343733665990   14.63648052677314    5.03557867764121
H         -17.13217969333757   10.64599464790140    8.02736397089186
H         -20.79359968204537   14.52136002832462    7.91002256890048
H         -19.08858243040661   15.44872156311502    6.16130799922371
