101
 SCF done       -213.160191224914          0.000698703730
C          -4.26712834170971   -1.74536701302854   -1.61734623718557
C          -5.09858311913249   -2.78682139660441   -1.30771253253758
C          -4.85315363082338   -4.13045029471820   -1.66437199248962
N          -4.70761152619555   -5.24012168490977   -1.91916373399024
C          -6.32330791084217   -2.67268901416654   -0.61429497520411
N          -7.33628011633701   -2.66761297508446   -0.07425406740596
C          -3.04098769062182   -1.83301135602437   -2.39598192577843
C          -2.52496343427129   -0.52654667554427   -2.59241253084804
C          -1.37185521327348   -0.28656034719182   -3.30139226254071
C          -0.69888086192274   -1.38279595798358   -3.84790429444568
C          -1.22000051439285   -2.68417129805212   -3.64417470739388
C          -2.38214581521260   -2.92888720713132   -2.92383536661928
S          -0.22418775239776   -3.88572613400731   -4.40311765778569
C           0.85576992797651   -2.66297693737520   -4.97693643756248
C           0.49621362196859   -1.41042215923392   -4.62023387327995
C          -3.39363374258578    0.45730588945874   -1.92472336934106
O          -3.20324086578694    1.64867576308741   -1.83493121209941
C          -4.48988987615118   -0.34076856864826   -1.29900828605514
C          -5.42069147717708    0.16306211633395   -0.46069563530684
C          -5.68848222844102    1.57341223570046   -0.25702099955493
C          -5.87258094418559    2.03372360892021    1.04904344472454
F          -5.72632563010435    1.10858755124880    2.02837469291275
C          -6.15391986508621    3.35933645537307    1.35529554981628
O          -6.40702713744105    3.89320463483003    2.56977492244694
C          -6.22260499430339    3.12292134504239    3.74091478445126
C          -6.24396124335342    4.24696490132667    0.26606091417563
C          -6.08632183034806    3.79229580896403   -1.03837905956557
C          -5.83635415497823    2.45588886291727   -1.34839804771776
O          -5.78629010809715    1.90051654744225   -2.57096528753695
C          -6.02116074574207    2.67865068033033   -3.72775615057083
F          -6.12091483453859    4.72640903809646   -2.01693672145358
C          -6.54062093674288    5.65980592526500    0.51851436457482
C          -7.62127280096720    6.29419279827324   -0.11166871002232
C          -7.91364620150153    7.69092920187405    0.10511656754311
N          -8.98091534012758    8.25584134820918   -0.49390976931895
C          -9.70057130610419    7.53728458177903   -1.30897290861043
C          -9.40580653910798    6.14344289085627   -1.53116213319682
N          -8.41375844317865    5.56087078111908   -0.91874826664995
C         -10.21364877279400    5.38152137519640   -2.41317673708392
N         -10.86895847511295    4.79562859009086   -3.14743640702485
C         -10.80353129872774    8.13662839641782   -1.96905149620343
N         -11.69146510067010    8.59343815346293   -2.52986078824209
C          -7.12792920421269    8.47921114267639    0.95518488123601
C          -6.06595071135268    7.84315660014145    1.60187339016769
C          -5.76858934407249    6.44152490006759    1.38088272917875
N          -4.67624042566631    6.06053195455056    2.05611643913839
S          -4.11414152636593    7.31022695679075    2.87430816608348
N          -5.18037474964057    8.40839154126189    2.43235791538819
C          -7.38998534413592    9.90979949688152    1.13882076577249
C          -7.58616256435631   10.41251159450908    2.41864932939024
F          -7.60620749960330    9.51353163928228    3.42923374698485
C          -7.81833177741671   11.76280154151892    2.66596501241107
O          -7.99241591665979   12.36110798934445    3.86015871588403
C          -7.85005692406096   11.62768856780798    5.06131739178743
C          -7.84774160990470   12.62601740407421    1.54912640499426
C          -7.67542211728492   12.10502801232989    0.26385561811760
C          -7.42717729383766   10.75980090154663    0.01757517567519
O          -7.16928888890635   10.17324277485806   -1.17075310246968
C          -7.13374560543345   10.93465615057890   -2.36075682564499
F          -7.79663590269439   12.97740084976187   -0.76803188449012
C          -8.12430754877376   14.02596741430507    1.78523410603502
C          -7.64896154561963   15.12047791540265    1.15665866551118
C          -6.60491025212433   15.31756183790519    0.16386380663313
C          -5.48399994363887   14.55026022344506    0.00327796855218
C          -4.48055084378008   14.81025728909715   -0.95344213936871
N          -3.64569617527338   14.95758171165358   -1.72700146816094
C          -5.15796960865402   13.44641794236308    0.81760121057960
N          -4.81523644116302   12.56763927794825    1.47193880551262
C          -6.85901892962586   16.59828039222107   -0.47936290960144
C          -7.86882553388290   17.28427351568403    0.24591729145857
C          -8.34259638852603   16.43286616158015    1.34977901835828
O          -9.14721036200099   16.70055044261941    2.20975864740110
C          -8.29597674105875   18.54413796748472   -0.10056911654847
C          -7.71019310160621   19.14971998293569   -1.21594667346056
C          -6.71380896625997   18.45053347773693   -1.94090496228849
C          -6.27443968877125   17.18059578457909   -1.58798697708519
S          -6.14179123960512   19.38660350303631   -3.28490872390981
C          -7.21253383060502   20.68035955887579   -2.87143615328793
C          -7.96934555096899   20.43027214906006   -1.78072289765288
H          -1.00362477322730    0.71927369409659   -3.43177962989173
H          -2.73479463412022   -3.93804515813183   -2.79116184355925
H           1.70800864196181   -2.96291598876493   -5.55526743364945
H           1.04756757665417   -0.52687595273303   -4.88645234358343
H          -6.00729769011124   -0.50900206844165    0.15359793705638
H          -5.19814221324683    2.75323813539817    3.82069401547364
H          -6.91989804895943    2.28318850349965    3.78768887726067
H          -6.42600930970379    3.80643083751559    4.56379516887801
H          -6.00381025562625    1.96892601011414   -4.55359739735072
H          -5.23692808141416    3.42419616434437   -3.87379064833333
H          -6.99661446433362    3.16966916490339   -3.69160404545781
H          -6.86914796299722   11.15212615204206    5.12364082443661
H          -8.63175101772980   10.87244405656789    5.16994394946744
H          -7.94814327837269   12.36661322592964    5.85497698641815
H          -8.10475360211522   11.38220391012766   -2.58407396908774
H          -6.87730573597010   10.22263305604037   -3.14385997667341
H          -6.36846932259469   11.71386100737049   -2.31929529704881
H          -8.84834576513994   14.21938525074310    2.57065590561647
H          -9.06008755104336   19.04605444579337    0.47239897738052
H          -5.51927605415879   16.68230433301253   -2.17325636692302
H          -7.20981048007332   21.56234179669780   -3.48199101947465
H          -8.69077860938981   21.11773239593032   -1.37780469936388
