98
 SCF done       -205.469494212185          0.000947342240
C         -12.20995448799545   -1.82021793111681   11.12809719549204
C         -12.50345858983514   -1.55101703654135   12.43957111112924
C         -12.94173226761977   -2.52010591960796   13.36699604338392
N         -13.29762165526888   -3.25747473967482   14.17164035666725
C         -12.43796691713288   -0.28364862238181   13.05602563987610
N         -12.42429484734317    0.71136618704595   13.62943632576002
C         -12.32994180290816   -3.12574701645328   10.48823420329856
C         -12.01598558297718   -2.98966627100416    9.11173715218452
C         -12.04432553426023   -4.04752466352118    8.23509929538979
C         -12.39562462765358   -5.30299463683878    8.73986214612660
C         -12.70367703670840   -5.43158879210782   10.11571215841039
C         -12.67767392974934   -4.36048193045587   11.00166864737960
S         -13.10470264402169   -7.07049628010135   10.51928489653237
C         -12.86291263394683   -7.55957597477336    8.87827630781015
C         -12.49841614894961   -6.54871366541013    8.05931517215686
C         -11.67271602954804   -1.58887536344774    8.83398688645819
O         -11.36292850095830   -1.11894741725469    7.75100302219297
C         -11.76590382523211   -0.87841470212710   10.11469109102250
C         -11.43794950114659    0.43536806166025   10.32158463334784
C         -11.00898576235101    1.41895381828239    9.41564855678521
C         -10.68868707699554    2.71519227609322    9.83562426169801
C         -10.31024826255808    3.53262673477992    8.78758789557519
C         -10.34703033259819    2.86002344469323    7.54522565710388
S         -10.82506525941707    1.23283518683902    7.67136250996878
C          -9.95827043230743    3.78678095714533    6.53905605183209
C          -9.68437111566110    5.02367905175527    7.13775653420070
C          -9.88463387041883    4.90869518502915    8.56996351029289
C          -9.70000873742708    5.88238928628027    9.50727829991647
C          -9.91220503396224    5.65908555876074   10.88411958698132
N         -10.07449931734701    5.48201044235368   12.00494233041564
C          -9.27264601304113    7.17986435131478    9.15520514584632
N          -8.92778959496992    8.23364864552992    8.86266777837587
C          -9.30857730500704    6.00431514651558    6.20630232414936
C          -9.29266901658864    5.50704815541296    4.93275011036999
S          -9.74703453148591    3.83177753646439    4.84536279407069
C          -8.99611421918178    6.27700485101065    3.68377298420106
C         -10.15908025510954    7.16496501999738    3.35064636225022
N         -11.40830066322738    6.75406935815121    3.41035864687043
S         -12.39466751408570    7.98213896250995    3.02712667527744
N         -11.23277382644216    9.08229093856202    2.77600674410570
C         -10.05800824634931    8.52921747971690    2.98443325216772
C          -8.76251839081279    9.25547636107438    2.78303999976169
C          -7.67878034127882    8.49127917014772    3.47177808476868
C          -7.77558372796004    7.12912140350166    3.85170161784814
N          -6.66585448729435    6.68318317925358    4.40143160796048
S          -5.57231209245572    7.87778321667626    4.44529454231793
N          -6.50116075409457    9.00760915918636    3.74958422025612
C          -8.50189567785809    9.33110780632442    1.30676082103037
C          -8.82794755552247   10.34783747983531    0.45611923896575
C          -8.50443925335103   10.03313899146826   -0.87533224809439
C          -7.93439683310464    8.76178279071579   -1.00731115642298
S          -7.79822811648618    7.95468067757560    0.49168103103659
C          -7.65157931513627    8.52430358132623   -2.38126446487647
C          -8.05237707313089    9.65648645350175   -3.11176673504413
C          -8.60693047933815   10.63837784952566   -2.19154255960303
C          -9.14199382208744   11.84908883361832   -2.51869737616653
C          -9.66460451102241   12.73149441508917   -1.54961871289860
N         -10.08258033962212   13.45348651058814   -0.76356098420676
C          -9.20196826452563   12.28709660445362   -3.85888448749625
N          -9.24013451293564   12.63165699578000   -4.95182501726628
C          -7.85822545627341    9.51348728930048   -4.48042069887281
C          -7.31427468064913    8.28081981552293   -4.80616157916362
S          -7.01078540992055    7.30379446237363   -3.37552531255725
C          -6.96307351779456    7.77590983430334   -6.07974108872749
C          -7.40206146214781    8.18169983117906   -7.30078734511140
C          -8.50093507863057    9.02151643846282   -7.73482225786950
C          -9.71382599301072    9.17284303120551   -7.11421590477438
C         -10.79593931004643    9.88953153608445   -7.66767124814540
N         -11.70991128012268   10.45146727255534   -8.07412183932952
C         -10.06316744670584    8.55032354381822   -5.90054540854323
N         -10.40530901623544    8.03926384971246   -4.93071888521139
C          -8.19977543800416    9.45417021976006   -9.09415084473738
C          -7.09034877515024    8.71065487658176   -9.57533853454517
C          -6.60212614985017    7.82087326694914   -8.50878683488781
O          -5.71347256774770    7.00221262899238   -8.56206534465087
C          -6.59660858092244    8.86885719512698  -10.84823429612389
C          -7.21564264671878    9.80975286208029  -11.67676767541669
C          -8.30957822045710   10.55967143308901  -11.17903019500627
C          -8.81629302204493   10.39498468179862   -9.89521302319815
S          -8.90390883041868   11.67106128913271  -12.37032654792983
C          -7.71427277885709   11.13092588235885  -13.50329259369609
C          -6.90310017298723   10.16509037484894  -13.01908121018719
H         -11.80174417908943   -3.90937473653182    7.19284793707445
H         -12.91912284263389   -4.51263295976675   12.04018773715887
H         -13.01094661105895   -8.59116762281878    8.62414485143538
H         -12.30521815965334   -6.66493625402755    7.00827108529648
H         -11.50293697622631    0.80294561034678   11.33868809448891
H         -10.74430797067719    3.01289279725386   10.86792610937361
H          -9.05935130822738    7.02129133434256    6.45004929541856
H          -8.83579393887476    5.56803828131488    2.86024325208025
H          -8.83171185335951   10.27475507388865    3.17461351687205
H          -9.27975517237763   11.26700768208430    0.78094247983578
H          -8.06046055156469   10.27546941690568   -5.21085642615027
H          -6.19803080872893    7.00565972743127   -6.09955968786975
H          -5.75787222486635    8.28452993445450  -11.19339783918731
H          -9.64395471949973   10.99424413859157   -9.55316536145191
H          -7.69487094619399   11.57811615315021  -14.47814394956744
H          -6.10661740605695    9.71030265563024  -13.57965014473733
