104
 SCF done       -204.767628210720          0.000385958518
C          -1.54491684708407   -0.98973956380612   -1.47311735062478
C          -1.98749980393023   -1.75107704176972   -2.52488670185309
C          -1.24032530858222   -2.79079389862192   -3.11662898452724
N          -0.68734247229203   -3.65083450616475   -3.63864023858476
C          -3.21793914496888   -1.58378124910503   -3.19386021416011
N          -4.18813176726717   -1.49744341856043   -3.80295705650140
C          -0.22841803240962   -1.08232202291893   -0.85752479726551
C          -0.08916848276185   -0.02141688397030    0.07124728231495
C           1.05253059567519    0.17122158037184    0.81106356926775
C           2.10773748258592   -0.72715676973838    0.62720937659213
C           1.95777496142674   -1.78821404732786   -0.29824923294310
C           0.80340942000543   -1.98210531462740   -1.04759017709909
S           3.38262281010406   -2.77721498888177   -0.35613423000380
C           4.15159864375566   -1.78148525709985    0.83089443585256
C           3.38380570620037   -0.75491815819799    1.25701356252033
C          -1.32452138404769    0.78085377798452    0.09811635292334
O          -1.53156276590139    1.74775040804214    0.80040710485010
C          -2.25564075254787    0.10981788615129   -0.84340835745612
C          -3.59653880860027    0.33888334522373   -0.98547948855752
C          -4.38213709806518    1.41730836994376   -0.53313368782110
C          -4.04657866997182    2.68929328321940   -0.08658506903657
C          -5.16706843783317    3.45943385040861    0.19184627786307
C          -6.38328312003768    2.77401021770079   -0.03143839228232
S          -6.13767179943656    1.19779009967159   -0.61425512604656
C          -7.45396396710821    3.63734792523134    0.30226353092688
C          -6.92252426264281    4.86880029465122    0.72369486184027
C          -5.47118261361683    4.80341463131367    0.65557855477748
C          -4.59393858796482    5.80892984362545    0.93681869705307
C          -3.19532544946535    5.67411931422725    0.79668490087327
N          -2.05819373408365    5.60315689475842    0.67273967682180
C          -5.03098491266076    7.08086045891259    1.36258183682102
N          -5.37616282136496    8.11987856855308    1.70446021404695
C          -7.90352836821069    5.79423792336393    1.07163963986742
C          -9.18132090463799    5.28900727737510    0.92695766105398
S          -9.15992751165005    3.62478372269104    0.34375599192741
C         -10.43383115110169    5.93764056730792    1.18887727317583
C         -11.62406529979321    5.22270817357948    1.13692259596614
C         -12.84971338286381    5.80814455880846    1.39863671581560
C         -12.97632862170920    7.15531017507843    1.71386695306302
C         -11.77870057108811    7.93415635214538    1.75444382880681
C         -10.51788689962586    7.32778198891797    1.50932161031693
N          -9.40020213491625    8.07560968184370    1.57615212866512
C          -9.47423813418021    9.34918490071526    1.85985372734570
C         -10.74173304429867    9.96173014182841    2.08884583988395
N         -11.83622924756305    9.24986685043791    2.03423270695340
C         -10.86939182368561   11.41325395411036    2.39411166623690
C          -8.20381912906976   10.12175757131841    1.93231902263398
C         -14.26279375634006    7.71928739459839    2.00510817536450
C         -14.59406008086540    9.04274651345344    2.22055007676758
C         -15.94645256776686    9.21267921035911    2.50693895844784
C         -16.66463031705080    8.00392984709083    2.51344998216403
S         -15.67015826414756    6.66575929531104    2.15620307983170
C         -18.01444934563352    8.28159020309153    2.84578395839940
C         -18.14617549176394    9.67209148776410    3.04029808835186
C         -16.85160750415070   10.29909781376372    2.83937646796430
C         -16.54845786921588   11.62201887447224    2.98041867321962
C         -15.24244967025593   12.11720748250391    2.78953189145938
N         -14.18119149891579   12.52284656750189    2.63267154502278
C         -17.53405004443276   12.56826453288763    3.33176381827273
N         -18.34912684133560   13.32542283525545    3.61021119348897
C         -19.42545653618628   10.04618539084665    3.42813621786441
C         -20.27910070408432    8.95884494510653    3.54351677870044
S         -19.47440208364913    7.45160110839509    3.11473048560536
C         -21.64077696341633    8.93281769102474    3.91511808546528
C         -22.36151439151785    9.87777241108888    4.57949407356115
C         -22.00048593622960   11.05777350633358    5.33801885149908
C         -20.85693843931516   11.24967359584148    6.07034798058791
C         -20.63183155997675   12.36905724688728    6.89893281056154
N         -20.39792552427735   13.25328952970967    7.59185858793782
C         -19.81352123794838   10.30967519796216    6.16798349065511
N         -18.94993058539791    9.56478147947480    6.30358626097079
C         -23.19222289019515   11.89460918623311    5.42501372541066
C         -24.30829976685405   11.14842978237163    4.96485336705584
C         -23.85030897913659    9.82937016363669    4.49679213160437
O         -24.51676913964520    8.90752393705729    4.08452272829188
C         -25.58512093519617   11.65669477515606    4.97119124568868
C         -25.76616048745762   12.96234692402608    5.43775225209236
C         -24.64180832084269   13.70535441134206    5.87302824263124
C         -23.35091123207194   13.18958705982035    5.87711565578717
S         -25.10103656465988   15.29657418213934    6.38847062270644
C         -26.75969305059522   14.95984235318866    6.03248997596795
C         -26.96830739538199   13.71678760191202    5.54639669873318
H           1.12717505146380    0.99192162285703    1.50749108223674
H           0.73608127618030   -2.80825361469416   -1.73554085691465
H           5.14756937597675   -2.03143978522945    1.14115302991412
H           3.69504336784919   -0.03396901369995    1.99110133232227
H          -4.16597534394408   -0.42074516802344   -1.50901959956355
H          -3.02938427793677    3.01527878592880    0.02676239353076
H          -7.73483631776357    6.79707164380516    1.41605169033913
H         -11.59335899540343    4.16997364569401    0.89473333704819
H         -13.73800970019506    5.19432322122436    1.35461054952376
H         -10.35058801145294   11.64718874854890    3.32278272944581
H         -11.91630255905021   11.68691359453040    2.49236216622400
H         -10.41500910468481   12.00590067060390    1.60181036839727
H          -8.19673298347364   10.90311586132477    1.17350986822540
H          -7.35373719675411    9.46357124929287    1.77544447610026
H          -8.11151645059691   10.60272006143722    2.90470071495918
H         -13.85536533997754    9.82045602411573    2.17137303126451
H         -19.74489452089728   11.06037026351774    3.58485608979193
H         -22.21476364666472    8.07350131525889    3.58139638305461
H         -26.41852640152332   11.06453005819267    4.62644176261830
H         -22.52237443727261   13.79358318019442    6.20846358113262
H         -27.48798419335528   15.72679448747590    6.21154933897619
H         -27.93321596707129   13.33226713942466    5.26961186140784
