101
 SCF done       -199.479939653884          0.000561911083
C          -3.38658003309038   -4.58038621584844   -4.17821979928861
C          -2.90149873331407   -5.51598268559470   -5.06820244448055
C          -2.90066122212344   -6.90270989903262   -4.83152913589321
N          -2.86879507470707   -8.04307255779491   -4.69302129824366
C          -2.34644898487777   -5.21089145122538   -6.32462877386120
N          -1.89599164961323   -5.03451139385176   -7.36730917414974
C          -4.03380733283326   -4.88385098116953   -2.90084358263774
C          -4.40343763289446   -3.66310541996094   -2.28414584707543
C          -5.09063938154256   -3.60664478328447   -1.09754720725336
C          -5.43738444387102   -4.81696400500041   -0.48705986445487
C          -5.04168962250681   -6.03295327328749   -1.09458459492708
C          -4.34080807863485   -6.08649016192656   -2.29715016313030
S          -5.56324118646355   -7.39778061131512   -0.15885667732860
C          -6.30627361588163   -6.35349086103002    1.00141823228555
C          -6.16596798195909   -5.04074277868115    0.71494259701218
C          -3.96636958659419   -2.54144145579592   -3.13320592298554
O          -3.94962923430846   -1.36547710244317   -2.82967234266966
C          -3.44536513311608   -3.16252260013948   -4.37653104444485
C          -2.97842411501163   -2.43082193023783   -5.46619758917464
C          -3.43874766119427   -1.17651079195637   -5.84408712167238
C          -4.69753317957802   -0.65905400465373   -5.54211596077199
C          -5.15013519157470    0.65946297993085   -5.70818777749409
C          -6.42635719514268    0.87625774827092   -5.24147022245076
C          -7.02851301837874   -0.27483013009515   -4.71987535532067
S          -5.98689216189148   -1.65099491187208   -4.91277547064310
C          -8.20169003765226   -0.43681226444435   -3.97215033289885
C          -9.18454480675096    0.49153495415852   -3.61149560732851
C         -10.10733397386109   -0.02867478570498   -2.73821299388986
C          -9.88031950407245   -1.37218637467977   -2.37637039209461
S          -8.48603333389204   -1.98316567258570   -3.22533623713925
C         -10.62636056375074   -2.03710828067009   -1.41052177993708
C         -10.48546150765285   -3.30064104283571   -0.84738514775651
C         -11.33639077452282   -3.65635766831814    0.25570954861951
C         -11.16944672386471   -4.87921349628706    0.99790038036595
N         -11.93416360107052   -5.10386667344857    2.06055803700733
C         -12.88209665899483   -4.24802026335747    2.39661570345014
C         -13.10434371038628   -3.09216715583491    1.60365133229268
N         -12.31662144492344   -2.81473312585660    0.58187940268019
C         -14.19668923394985   -2.23786210361822    1.89002124071678
N         -15.10074437801250   -1.57996447823497    2.14298898290060
C         -13.67997830462933   -4.49238709934099    3.53666121435334
N         -14.35574990544159   -4.62929506910675    4.45299975556620
C         -10.22021000440724   -5.87892623061943    0.62413983822833
C          -9.46486914603154   -5.57196144865554   -0.54971779235655
C          -9.57282629298122   -4.32115800417414   -1.24653905863461
N          -8.76470263145244   -4.27918875957479   -2.29500039065738
S          -7.94308467821836   -5.66555707764914   -2.41104371071116
N          -8.58376036288887   -6.38462976803740   -1.11808841216715
C          -9.98169545216393   -7.09490934544839    1.25771224221620
C         -10.46767800196038   -7.65616205736344    2.43134640201683
C         -10.04499130323680   -8.92019300940873    2.89870228983699
C         -10.57412018745313   -9.29037952240346    4.10674893564747
C         -11.43018175653022   -8.31609978422785    4.63862749657593
S         -11.58567486404597   -6.94833944534890    3.56322328210271
C         -12.08524899853857   -8.27238194690781    5.86800976374857
C         -12.08772117379355   -9.17693324773317    6.94403158953940
C         -12.75119413547641   -8.70738780158610    8.04500023058572
C         -13.26456366396048   -7.39819891545116    7.89441620033440
S         -12.98022688613540   -6.83531734233164    6.27182520849292
C         -13.92763382869796   -6.65515522860011    8.85857608372515
C         -14.33578119336393   -5.32210590390478    8.79477528801048
C         -13.93011531405281   -4.25588919503450    8.01491012893680
C         -12.75961832479212   -3.96947779422679    7.23952802679489
C         -11.52031434101824   -4.56493782322419    7.35395264774334
C         -10.44321177599516   -4.32921339583243    6.48206250014766
N          -9.54715641062657   -4.23059006367767    5.76872082133069
C         -11.18611017485146   -5.46930408549763    8.37701653231762
N         -10.86515060061648   -6.18921429693863    9.21278155372685
C         -13.05751343387797   -2.82310497975788    6.38855484794797
C         -14.32841281765744   -2.30769539858314    6.74322523474263
C         -14.88316529329426   -3.12219755397023    7.84179763830026
O         -15.90372974660183   -2.93776676665554    8.46532776018218
C         -14.88223545848393   -1.21915952082094    6.11458005432442
C         -14.14750406326512   -0.61029474392899    5.09191236939180
C         -12.87699215438781   -1.12941750144418    4.75256429289754
C         -12.31435680962766   -2.22908347499195    5.38819666358285
S         -12.14918789944219   -0.21733726680627    3.46501162864508
C         -13.52366848805855    0.83353514566060    3.39901461487166
C         -14.48549173586949    0.51760542420720    4.29074028984650
H          -5.36289996697994   -2.65919619687755   -0.65905586904202
H          -4.06554320741233   -7.03828593608007   -2.71980390964110
H          -6.80717751819512   -6.78965499453253    1.84370897998881
H          -6.55950499203345   -4.24753713642539    1.32507202028734
H          -2.17796951318350   -2.85511100298527   -6.05994424664831
H          -2.80719066054809   -0.57075471211192   -6.48096060952845
H          -4.51564065348323    1.42967446411546   -6.10955009983016
H          -6.91528969388039    1.83405877479119   -5.24021371256300
H          -9.19862194197546    1.50227935570696   -3.97808538066788
H         -10.93034337909118    0.53051677225037   -2.32862171068871
H         -11.42864039671842   -1.45213922682015   -0.97435657820485
H          -9.25345826119483   -7.70755849841840    0.73631516357270
H          -9.35341924727023   -9.52178211338087    2.33454398276243
H         -10.35460730191190  -10.21580765188231    4.60861818844011
H         -11.59632595909213  -10.13167408255461    6.89173350919560
H         -12.84201166096359   -9.24207769706601    8.97336396288063
H         -14.22050905620243   -7.20361591563253    9.74557462027074
H         -15.16546001044009   -5.06331391076156    9.44936666530302
H         -15.85305345278990   -0.84642705575771    6.40117685972992
H         -11.34475454036623   -2.59361880448467    5.09051212388627
H         -13.52374761921292    1.62742146933888    2.67829669545902
H         -15.41207164857517    1.05263210892434    4.38816968706066
