101
 SCF done       -204.956485735933          0.000602985949
C          -1.51296564866526    2.06914106285382   -3.01453676793438
C          -0.60724085876493    1.44461751724523   -2.19746792476883
C           0.55882472720236    0.79696633556139   -2.65892769528414
N           1.52227629997588    0.25441413831526   -2.96672576962112
C          -0.68693388841705    1.35363374954181   -0.79174862807408
N          -0.67453136706928    1.23702205754671    0.35067510880585
C          -1.40907059651917    2.16804147010952   -4.46648567827941
C          -2.51787191307506    2.90590753979172   -4.95424187340125
C          -2.70414856152768    3.17487546652796   -6.28900716100725
C          -1.75143507966275    2.69090160840790   -7.18995091364208
C          -0.64876500224627    1.95214922809246   -6.69653313658423
C          -0.46035851204820    1.68179096823616   -5.34579580795452
S           0.39874929200257    1.45156004343276   -7.98545675937418
C          -0.62499485927440    2.21903475392380   -9.14875125304109
C          -1.70400080486396    2.82452064939203   -8.60594214863445
C          -3.36987451978778    3.29466584896704   -3.82448615854547
O          -4.40399314331230    3.94037603035883   -3.88558871954756
C          -2.73293158169953    2.75368280322364   -2.61772019861289
C          -3.22203534123021    2.86422007183868   -1.34337300426771
C          -4.39273835918233    3.48098127397313   -0.86947841587822
C          -4.73894440661574    3.45852256417490    0.48643152074471
C          -5.93673496175770    4.10198540835913    0.73797183636855
C          -6.51404897981081    4.63039602304894   -0.43862163736531
S          -5.59298089195641    4.33597696451239   -1.83748185803510
C          -7.74188055233888    5.25118200883056   -0.08011026632925
C          -7.93468257802729    5.11419472954561    1.30041944236227
C          -6.80877470073476    4.39461497017887    1.86703646364637
C          -6.62772980240279    4.06849779932526    3.17916341457661
C          -5.49736152457215    3.35915980958036    3.63665126762169
N          -4.58194166083102    2.78278540193299    4.01532328208366
C          -7.57724540617369    4.43075104669697    4.15785748003527
N          -8.36203136838481    4.73764591356670    4.93593114344387
C          -9.14125309967797    5.67964692547420    1.73397505511571
C          -9.84404020744655    6.23047386847811    0.69461750239228
S          -9.03011231208940    6.07731957695878   -0.83626256205001
C         -11.19213987436936    6.87461306963163    0.81949591895878
C         -11.71172700665118    7.42299908994919   -0.50941850257487
N         -10.99007955158985    8.03474530246891    1.71198847568910
N         -11.49083053286358    8.21063561691634    2.78996993204895
C         -12.46546877988817    7.33446455015767    3.47282110132072
C         -12.69762368208181    6.08373754539043    2.70572246939885
C         -12.12185108255830    5.88315700944008    1.41960716071390
N         -12.52059963724057    4.72353239481304    0.98108598717203
O         -13.31396315507815    4.21632881281917    1.93367964277282
N         -13.42473016528816    5.03975079503399    2.98262312382651
C         -11.91244499840092    7.05987598174965    4.87274880866838
C         -13.74343403214987    8.12170486940773    3.50395860584701
C         -14.42690242110403    8.62663426753651    4.57364416930059
C         -15.59879148773626    9.29066395841343    4.17332757907962
C         -15.78123132391947    9.28680224076786    2.78590789244700
S         -14.52672044727877    8.46861598646709    1.97384541722219
C         -16.99066491590703    9.96708990844364    2.47611893559492
C         -17.57073350645977   10.39639118745805    3.68250894966836
C         -16.72135116260435    9.97861646172094    4.78802819211886
C         -16.96183497782630   10.16704716182344    6.11688518897629
C         -16.07228399155489    9.71247464643377    7.11319359437556
N         -15.34164413849238    9.34983835494456    7.91846536157040
C         -18.12224678318572   10.83259385307483    6.56628368720801
N         -19.06820688698585   11.37860411668115    6.91515222293570
C         -18.78511454660616   11.04679728078690    3.49603021836492
C         -19.14084223353228   11.11759676006484    2.15814450565753
S         -17.92339700936224   10.38932841913572    1.11947999093471
C         -20.28252238013130   11.71268376028172    1.57164640899562
C         -21.47487315771462   12.01576184048969    2.14936192647586
C         -22.09932780496919   11.64330671272825    3.40349784596211
C         -21.93017408937667   10.46749268674437    4.08732961931835
C         -22.68029387961956   10.10588709208187    5.22653830096127
N         -23.26604099668223    9.75960159393750    6.15022512040886
C         -21.06317323781243    9.43571155381171    3.67941465064891
N         -20.39194122951833    8.55680531989372    3.37049111262889
C         -23.15458405084400   12.61536358116802    3.66321983353211
C         -23.34551449959053   13.40528023587193    2.49921598704908
C         -22.36661672515235   13.00623195467605    1.47500760161935
O         -22.25653629390948   13.41392307500765    0.34174861418399
C         -24.30778096956070   14.38396461133283    2.42511476132376
C         -25.10693792232134   14.60090605905405    3.55161608675324
C         -24.89396402194732   13.82004060380638    4.71432379973200
C         -23.92727511811082   12.82400879756677    4.78857398236695
S         -25.98507835520344   14.27244251561462    5.98403314337089
C         -26.70707354812245   15.47239465080223    4.96942630524337
C         -26.16025131181829   15.54021809486914    3.73585856801412
H          -3.55924926997395    3.74043241604273   -6.62538933108340
H           0.39643892758020    1.11433118360613   -5.02369994899778
H          -0.35104317067956    2.16872007126547  -10.18465253777764
H          -2.44885891538215    3.35123530116731   -9.17450587171077
H          -2.64247757281911    2.40354761270643   -0.55249519890010
H          -4.12307106631244    2.98003080817931    1.22757546164684
H          -9.48310412205179    5.68402909263244    2.75337026424212
H         -11.02272677492230    8.17545487877352   -0.88403864692353
H         -12.68886193713467    7.88037158113511   -0.36708181469867
H         -11.80170887901719    6.61122836278869   -1.22705360134789
H         -10.99269997340778    6.48253957786508    4.80338722690123
H         -12.63837850561085    6.49114731394624    5.44683660922082
H         -11.69342797088819    8.00094531602407    5.36842867851270
H         -14.11011435484674    8.51760742735170    5.59356079140934
H         -19.37138256289137   11.48716508068729    4.28182053358153
H         -20.18212000446288   12.02857387993327    0.53748937977120
H         -24.43921175150400   14.96409621545004    1.52498257865764
H         -23.79235571131569   12.26009788151734    5.69680905700892
H         -27.50956264694562   16.06339886975779    5.36618110839185
H         -26.47991364370574   16.22565711970468    2.97202378595234
