92
 SCF done       -194.315538768439          0.000731229299
C          -4.33306337466698   -3.96346258193944    1.97641830579768
C          -3.86749001732965   -4.04041742108254    3.26400869647846
C          -3.02166739370706   -5.06591820526527    3.73822870233546
N          -2.33081974065130   -5.86462398522433    4.18805282932518
C          -4.17701214201510   -3.14841685779488    4.31245464586877
N          -4.39141805567303   -2.48589844920598    5.22633088228252
C          -4.08444870070443   -4.94861621474271    0.93325371398274
C          -4.84352957859224   -4.59798853550627   -0.21053343564429
C          -4.83487841013075   -5.34275813941739   -1.36546995317568
C          -4.03700587159213   -6.48991204107768   -1.39486442153499
C          -3.27660134024134   -6.83083189651179   -0.24953783331238
C          -3.28645588279733   -6.07770578206556    0.91830647900983
S          -2.36289018793925   -8.28248638875015   -0.51183637620222
C          -2.99408211238256   -8.41895643008689   -2.11628364581309
C          -3.84956866555393   -7.42755269517020   -2.44885047169951
C          -5.59494077744223   -3.36017788602263    0.05183161190971
O          -6.32933605243922   -2.79558287344947   -0.73065711718050
C          -5.21686380668081   -2.94453784987577    1.42746870135302
C          -5.50486936633689   -1.76736063041697    2.05827073365754
C          -6.38728579130922   -0.72271181101921    1.71024790677384
C          -7.38548650627872   -0.61367020134529    0.75064203913585
C          -8.03945893675948    0.61003920075695    0.81246046281892
C          -7.53863196073163    1.45643044590758    1.82656867078673
S          -6.28221745785519    0.73361974353368    2.71137017009886
C          -8.25219046822956    2.67782763177844    1.78633028165939
C          -9.20825017523486    2.60890325265951    0.75450779903841
C          -9.11421842753489    1.30186948038466    0.11804694344210
C          -9.88716235554160    0.82686907681012   -0.89830161174120
C          -9.75178907452172   -0.47588596496832   -1.42824888892256
N          -9.68321207342162   -1.53053511780778   -1.87101396660436
C         -10.90898623191790    1.60187400419968   -1.49014405815890
N         -11.74085444524107    2.22046230476065   -1.97887060709449
C          -9.95645371713693    3.77669874159021    0.63318432605293
C          -9.57095987978374    4.72803575723572    1.56458528476886
S          -8.27744204350404    4.17597184428338    2.60491627088269
C         -10.11170959579897    6.02956406795544    1.69722986616065
N         -11.05790438170749    6.49377158772383    0.93372656732637
C         -11.35688825517246    7.74830790312288    1.26000522114276
C         -10.62773303170502    8.31323255907160    2.32390622984766
S          -9.50609446634078    7.16663916575259    2.93318813806521
N         -10.91466557137746    9.57395155680273    2.63798241917094
C         -11.84840037312133   10.04241094368562    1.86116595208578
S         -12.46958049876239    8.90080923103934    0.63982604464004
C         -12.33897616863278   11.36622741134602    1.93394478788071
C         -13.29914995767316   11.96349704311693    1.13617608243307
C         -13.49365859799562   13.29795448537283    1.48369079178692
C         -12.67406961440371   13.70904771120928    2.55345177499441
S         -11.67001532684472   12.45567311838578    3.13080438010326
C         -12.92365117854574   15.08172880951537    2.81005938338347
C         -13.90034246156328   15.53432628057335    1.90177038455802
C         -14.28747081757958   14.43192940091811    1.03816294900174
C         -15.17773558552676   14.47651150567261    0.00635453169566
C         -15.47678729729381   13.34455145088212   -0.78118699461777
N         -15.72858470144329   12.42444107860931   -1.41676567510331
C         -15.85254698460667   15.66935819321975   -0.33048656748461
N         -16.39377579592531   16.64607914713354   -0.59068030235223
C         -14.17867122890873   16.88898705325464    2.03633580185619
C         -13.42166376548029   17.48172573149215    3.03520069167123
S         -12.37844898090165   16.31871419733156    3.84260085590380
C         -13.42352553278377   18.82971411180863    3.46534152801617
C         -13.84385403450068   19.93349377923587    2.79246419424446
C         -14.17897360324820   20.18868440356752    1.40507599381476
C         -13.64292778355607   19.57386078963447    0.30342925095141
C         -13.90879605984314   19.96901772339312   -1.02494289659654
N         -14.08546154863150   20.25035591709945   -2.12320296623981
C         -12.68501053938277   18.54334494254223    0.36032837113155
N         -11.88128773827520   17.72308839729438    0.35374539200177
C         -14.97391306983138   21.41054483610618    1.37279932603815
C         -14.91926603104332   22.02589129263943    2.65103396045535
C         -14.14086398946815   21.17623423692245    3.56673852562644
O         -13.83595842535314   21.39327476151889    4.71657540460552
C         -15.53711530472346   23.22472855183228    2.91641264039665
C         -16.24972535543305   23.83592874312268    1.88036630435396
C         -16.31487885048715   23.20214352638525    0.61496928011885
C         -15.68377864691247   21.99417344828358    0.34193232049830
S         -17.25985539772780   24.12964883153289   -0.50485595177423
C         -17.54839070868257   25.33607410618021    0.70003695357384
C         -16.97025914373304   25.06327645816568    1.89031002884700
H          -5.42863051357553   -5.04734093461999   -2.21652520850811
H          -2.68645560712942   -6.37863345086947    1.76060589154015
H          -2.68019163691297   -9.24743719202658   -2.72110401534541
H          -4.33902308374769   -7.34852421011052   -3.40259828504390
H          -4.96871284397729   -1.57483598953742    2.98047713808615
H          -7.59668681623381   -1.39686466880368    0.04524252439686
H         -10.73876181636345    3.96206664190669   -0.07915815415061
H         -13.81126177223265   11.44102483943338    0.34817993797670
H         -14.91862757287547   17.42234400118139    1.46781680035274
H         -13.10048621373225   19.01076210619873    4.48610839966895
H         -15.47156360495331   23.67681684980572    3.89383610130169
H         -15.76778285194701   21.54208958781030   -0.63254402034586
H         -18.14365582650698   26.18929396468921    0.43853670937728
H         -17.04202241696214   25.69845643932072    2.75450213614382
