99
 SCF done       -206.510032354476          0.000636097331
C          -2.12638057015802   -1.35314645066342    0.52814126593395
C          -0.81617413937783   -1.08545475117653    0.82992747012205
C           0.22695098455044   -2.02990687676866    0.72736757334654
N           1.12004599354852   -2.74851479214723    0.66603255289893
C          -0.31879099687024    0.14349911638793    1.31203518218132
N           0.16209750488553    1.10352888773722    1.71976111501568
C          -2.64526779454786   -2.64567543689160    0.09388287555533
C          -4.05709644030113   -2.55769733204538   -0.00878386470064
C          -4.84182537074048   -3.61799833694078   -0.39364863736405
C          -4.20367792589698   -4.82418761852913   -0.69729837987241
C          -2.79367109705483   -4.90300208766302   -0.59692813315303
C          -2.00046400623856   -3.83067924373695   -0.20399254591907
S          -2.22109031960677   -6.48376169748179   -1.02450271770636
C          -3.83884729722425   -7.01516209940253   -1.32645658411407
C          -4.77093184298564   -6.05930180176756   -1.11945714893233
C          -4.48078801345397   -1.19680077612575    0.34583043704609
O          -5.62783777562496   -0.78257833774815    0.38537910773669
C          -3.25301835529639   -0.44187873987091    0.62530622204354
C          -3.18159617514975    0.90809742596423    0.85222809423423
C          -4.20311060686246    1.86580572377836    0.95329304385781
C          -3.92169645503573    3.23007221108499    1.10514518688182
C          -5.06422651836065    4.00051461667415    1.18868929994841
C          -6.24481921454739    3.21777923462336    1.12149807992921
S          -5.93861122671563    1.55386832439747    0.92378433817818
C          -7.35582866196911    4.08627099814309    1.20888268760688
C          -6.88629435822861    5.41317613970373    1.32593577139606
C          -5.43316860801054    5.40154856656238    1.31738175751511
C          -4.60057441446459    6.47886934707461    1.39798777086282
C          -3.19579173211146    6.34920133288240    1.36597171306201
N          -2.05377259940134    6.25303556174783    1.33551162707189
C          -5.08699594847296    7.79868793624152    1.50976140111963
N          -5.47051374313884    8.87568476553932    1.59910411393336
C          -7.91067994122748    6.34500431589254    1.40262609181091
C          -9.16513767908942    5.74727300168024    1.35024982860225
S          -9.06164524756857    3.99637834352933    1.21193590907877
C         -10.43885687146433    6.37616514190498    1.37430902401525
C         -10.63561611744896    7.78342109402260    1.39911358104801
C         -11.95321345118785    8.34623738873808    1.36383294241446
N         -12.11296023439829    9.68185149847045    1.36410327827167
C         -11.06359734420613   10.45373013408016    1.40265077956498
C          -9.76822998231047    9.90062192593626    1.44798826283443
N          -9.57419188312572    8.61156639323717    1.44405312698087
C         -13.13390274249684    7.56486859694923    1.32027410971578
C         -12.94143323491473    6.16770008478697    1.33215076745972
C         -11.61668968738584    5.59893981997195    1.35049211765010
N         -11.65485397248129    4.26462784056443    1.33997963708188
S         -13.18409635713664    3.77706027902802    1.31417427341931
N         -13.87962290558226    5.21822868697564    1.31159554492287
C         -14.40757940190422    8.18023035124219    1.24038218434505
C         -15.64070418163790    7.53854200041082    1.20048674344246
C         -16.68816207579033    8.43924835640432    1.08192261398328
C         -16.25217059051718    9.78151110725777    1.02577405661305
S         -14.54746766851031    9.92492335998341    1.13972706020099
C         -17.38927310568000   10.60693002834694    0.86968067791230
C         -18.54215628622287    9.79112911626812    0.83684475674559
C         -18.13628962253451    8.40326193164834    0.96472314086741
C         -18.94853333294477    7.30746267219803    0.93779123179827
C         -18.45000023072120    5.99317742393213    1.05466067840701
N         -18.05432489553852    4.92147109743586    1.15361785993381
C         -20.34588472267741    7.43495212661890    0.79136003209277
N         -21.48060214697573    7.55603928266943    0.67711398117638
C         -19.71072913391033   10.50958510273631    0.63416357051726
C         -19.47398789962023   11.87097969744055    0.49720969147719
S         -17.76395579247630   12.25541192194005    0.67327288009214
C         -20.39812705908790   12.91476880776420    0.27993355524576
C         -21.67899302072951   12.84067689514930   -0.17754257760860
C         -22.45092751284165   11.79841295963914   -0.82175214734581
C         -21.97772558411396   10.81755611852219   -1.65546695820923
C         -22.80496917057741    9.91895043546111   -2.36139898954086
N         -23.42984151940029    9.16978595105011   -2.96549661098972
C         -20.62003951613156   10.65427492558519   -1.99019788003902
N         -19.52965721950840   10.49663833312299   -2.31446664388704
C         -23.85907527788913   12.14468307269849   -0.66163640814173
C         -23.94903530036577   13.47277705551473   -0.16938180292361
C         -22.59288326621782   13.99353713008427    0.07183984379138
O         -22.26903002097264   15.09959503029306    0.44003073105919
C         -25.15442734384353   14.09847135488016    0.04081844168566
C         -26.32094604445090   13.37740102479285   -0.23208669152700
C         -26.21894396616377   12.04501041846052   -0.70122261768631
C         -25.00057824987605   11.41383873717572   -0.92463028620233
S         -27.78603412462926   11.34537377894837   -0.95245526592417
C         -28.54935198694700   12.81240672909327   -0.44594698095008
C         -27.67827171027048   13.78520079113544   -0.09971322331603
H          -5.91410417384790   -3.51782499522791   -0.45978140513689
H          -0.93071941702371   -3.94218635497570   -0.14674980850654
H          -3.99449175932963   -8.02726537692086   -1.64597017865257
H          -5.82669837908440   -6.20759377613386   -1.25694098751335
H          -2.19145401190619    1.33661712491344    0.95272199576865
H          -2.91407246568845    3.60494358708438    1.14512123111775
H          -7.79488695343076    7.40914351980300    1.48894660851517
H         -11.23695539505685   11.52016817924589    1.40091776027342
H          -8.88347777939305   10.52020483912242    1.48891153413925
H         -15.72873761604111    6.46880101020050    1.25136978315105
H         -20.69722077903984   10.08328592861527    0.62362203706709
H         -20.07590455973687   13.91050952322619    0.56963595246978
H         -25.19554741068242   15.11316040989751    0.40523240222535
H         -24.96895827267434   10.39479850460829   -1.27344697491354
H         -29.62113904475316   12.85594346391372   -0.43791843136497
H         -27.97024762427656   14.76247093200676    0.23972988418177
