113
 SCF done       -221.409814051217          0.000856578558
C          -1.79085099288424    2.81636307483566   -1.02831798569837
C          -1.61725632084075    1.74193558084028   -1.86309766641191
C          -0.37474369209084    1.35764892021428   -2.40952165163206
N           0.60257607982410    0.99069356658905   -2.88728723523833
C          -2.62738863516820    0.84891339809189   -2.27627927967372
N          -3.38500230531890    0.06987940588852   -2.65003739353535
C          -0.72936483062494    3.70088165260783   -0.56044143553166
C          -1.28016749767643    4.62181072521066    0.36650713611535
C          -0.52907250620647    5.58910689654155    0.98867178954313
C           0.83311545303088    5.65498419999714    0.68032799494337
C           1.37519618720026    4.73429411298916   -0.24821005851907
C           0.61500859627332    3.75416329336967   -0.87611762985423
S           3.07366054295591    5.00415411780652   -0.48121214613839
C           3.04450637783819    6.31722697473379    0.64411143562752
C           1.82360606138961    6.55008954019677    1.17357974443292
C          -2.71915818261346    4.35531486830804    0.51546859638015
O          -3.48730449754575    4.93271907345459    1.26309813191975
C          -3.02993784557528    3.25779942851717   -0.41312863012697
C          -4.28207073082559    2.78050248233151   -0.69248236670294
C          -5.53045239954434    3.15031013422678   -0.16117433845743
C          -6.72357861596930    2.58800640358912   -0.61803240381720
C          -7.86303864937857    3.05654193072586    0.02232898190353
C          -9.22507041304976    2.67517231408836   -0.35771485438122
C          -9.52251976240699    1.33253389641561   -0.58632075238116
C         -10.81575646104976    0.96768539476140   -0.92482750832754
C         -11.81045750861605    1.94012624117043   -1.04973458112883
C         -11.50658910161682    3.27618273775061   -0.84594008681438
C         -10.20418029535067    3.64245078246710   -0.50532445709055
O         -12.39980892929932    4.29712697225879   -0.93993612184701
C         -13.72778386508264    3.99783907745582   -1.29964361755935
O         -11.22946297046152   -0.30907782029901   -1.15076805655058
C         -10.28390814975876   -1.34795971906363   -1.05734279689657
C          -7.54098127336776    3.99437514569506    1.00952902656433
S          -5.84556284290782    4.31696394440945    1.09235186971581
C          -8.41964383777073    4.62085313508054    1.94958250775129
C          -8.16510608761761    5.92059866695961    2.43563461883513
C          -8.99247130605524    6.56387594166983    3.42007911843273
N          -8.64202499505214    7.79521225349287    3.85541970965942
C          -7.60022980932626    8.37578848056468    3.36319472567317
C          -6.82094822388316    7.76411742826368    2.34318333217633
N          -7.10931177992232    6.58333816338695    1.91337817293932
F          -5.79208526248759    8.40101663534901    1.79412703370799
F          -7.28489636204954    9.58016268989853    3.83631400225229
C         -10.14426337347399    5.93555983049820    3.94788010832289
C         -10.40086776194807    4.63782921994749    3.45258877470136
C          -9.54739545191997    3.97870991749136    2.49598232328675
N          -9.95380862850493    2.72927724927701    2.25472371785333
S         -11.28175354173462    2.43539669678758    3.09153291508290
N         -11.40875489833232    3.85129491278471    3.83453207325763
C         -10.99689043388201    6.50605525608783    4.93897371947236
C         -10.87831076091848    7.71966312786419    5.59528528260412
C         -11.88636914538040    7.96865692615685    6.52514137411781
C         -11.90428807540407    9.16702900490356    7.36623083016708
C         -12.13929451385798    9.08578179437148    8.73316768974659
C         -12.23881897374255   10.24729685251668    9.49419556381840
C         -12.10400745933255   11.49513610286524    8.89103144011352
C         -11.84397361407333   11.57544442475545    7.52600096546520
C         -11.73750897654961   10.40773341059446    6.76839093391135
O         -11.68555608225910   12.72919039696709    6.84057623103808
C         -11.93497471496264   13.95405078507219    7.49080047025547
O         -12.49469538345799   10.05979823881816   10.81736326307640
C         -12.52750698608365   11.17815857391719   11.67170237971680
C         -12.82713100152219    6.93489680321294    6.57914511601906
S         -12.39203274007864    5.64041764331936    5.49747819308241
C         -13.98467775607717    6.76663850066832    7.37325172436590
C         -14.75805540055219    7.67625413284134    8.02956517694452
C         -14.85769255170977    9.11770104734778    7.97348045046725
C         -14.67864135664161    9.89961804740136    6.86074196295339
C         -14.88007824925191   11.29256171501082    6.85108861447135
N         -15.03036634889125   12.43080920841785    6.81822787124209
C         -14.34141609486762    9.36320685455847    5.60267170915190
N         -14.11066287018778    8.94258053164615    4.56019635226994
C         -15.42623318274989    9.55774348089548    9.24238196220104
C         -15.87596577767636    8.42135817794521    9.96007845842022
C         -15.58532259179323    7.20593140240036    9.17621356104721
O         -15.89276582016502    6.06376619736566    9.42993528124861
C         -16.44717563384075    8.51618331999525   11.20622960416764
C         -16.56497917386688    9.78761132122446   11.77512533673545
C         -16.11166323915816   10.91402135396699   11.05001802128227
C         -15.55008309464532   10.82133095252651    9.78230297680374
S         -16.33323902103956   12.37709478095459   11.95986762277574
C         -17.02097404032190   11.48547189851546   13.27497203142169
C         -17.08510883477640   10.15636232423678   13.04922603825457
H          -0.98050826477165    6.27370393980268    1.68985344882589
H           1.07597928286405    3.08017187993777   -1.57857347090774
H           3.95846475195816    6.84313130434118    0.84112832661592
H           1.61462070229066    7.32573780689459    1.88786807300109
H          -4.35438081607554    2.00379910827906   -1.44460152296788
H          -6.74649423327951    1.87204476029912   -1.42124202272333
H          -8.74446951500163    0.59854633016368   -0.46027567009972
H         -12.80076385035948    1.60543904623994   -1.30916310013108
H          -9.98265886383922    4.68748870511148   -0.35861095539451
H         -14.24719028271446    4.95424297235955   -1.32731764891723
H         -14.20688913563810    3.34710896019450   -0.56125177752173
H         -13.77902736516848    3.52775741396578   -2.28651977102274
H         -10.82961425434524   -2.26309363097950   -1.28149443456782
H          -9.86044319019475   -1.41620197289010   -0.05036350371211
H          -9.47583256198635   -1.22215257681364   -1.78449819148975
H         -10.06448405324511    8.39493648460056    5.41314029158035
H         -12.24253048879458    8.13358146756656    9.22780903249224
H         -12.19934478625460   12.39373673330780    9.47628232921686
H         -11.55966940036740   10.49464084801521    5.70899202680615
H         -11.22955967901872   14.12778403590646    8.30998834959896
H         -12.96178368583961   13.99909493223970    7.86473311501398
H         -11.79689534844358   14.72009561375518    6.73017875430513
H         -11.56870584975470   11.70602801402182   11.67639954839390
H         -12.72398510311192   10.78021291810379   12.66593371467866
H         -13.32656953104756   11.87506330413133   11.40090427477834
H         -14.27685556278606    5.73313014743056    7.54154764913577
H         -16.78266179212756    7.63512943018199   11.73092747113955
H         -15.21317572448003   11.70446056112311    9.26467483433095
H         -17.33860534253365   12.02455711684776   14.14606862161917
H         -17.48229486073968    9.44584979063105   13.75145920854731
