93
 SCF done       -195.246644700616          0.000873554767
C          -3.44464672596501   -2.33234729874607   -0.29639521437217
C          -3.19775184614273   -2.57612464583805   -1.62214020736103
C          -2.41771452660906   -3.65241518447516   -2.09473138745357
N          -1.79815371068303   -4.51033872097936   -2.53917899323720
C          -3.64807711146731   -1.76950649246735   -2.68867603820173
N          -3.96306020922156   -1.14984797356321   -3.60265373932776
C          -2.90042159670105   -3.08310411808674    0.82512562685491
C          -3.24199548283543   -2.41286671575310    2.02668607292951
C          -2.86592610770082   -2.87534767812805    3.26505882562351
C          -2.11975047109183   -4.05595704113371    3.32126989536524
C          -1.78849836848438   -4.72251897612176    2.11610096868618
C          -2.16666760980587   -4.25395617293287    0.86359172354481
S          -0.87310616574390   -6.16327257164621    2.42651820094338
C          -0.93717383487574   -5.86664964130357    4.12920937543295
C          -1.61142918619579   -4.74336334245181    4.45901944850210
C          -4.03516727319513   -1.21097176824607    1.71921176068402
O          -4.49410039090733   -0.42878373987218    2.52303854111220
C          -4.21691180135289   -1.22459854126490    0.24262604568016
C          -5.12095785056664   -0.49091749025353   -0.46809473246988
C          -5.85953637742190    0.64038236089464   -0.05151818332002
C          -5.62080209925932    1.57365544647671    0.94634220719623
C          -6.61419270790191    2.54545340451693    0.99965561516316
C          -7.62705907043336    2.35211050893122    0.03909336296906
S          -7.33075303321125    1.00834949871899   -0.95660350697554
C          -8.61764824662406    3.35141883749442    0.22397337767168
C          -8.22595880846626    4.18132148163741    1.28659243402072
C          -6.95163403455918    3.70942798259204    1.80591102212361
C          -6.23488849919758    4.23945761692691    2.83659766147924
C          -4.97899086263970    3.73085197570728    3.23535272754299
N          -3.94582189832886    3.35314886888925    3.55667353634233
C          -6.70181258440874    5.34132156873776    3.58641275936331
N          -7.08718290969567    6.21782323542688    4.21661849865784
C          -9.15174126329635    5.19408312733184    1.54996019775892
C         -10.24489998643575    5.11785587996225    0.71261029026362
S         -10.12689848516022    3.79374588529615   -0.43290463909778
C         -11.41148606195385    5.95818027948479    0.73474741837703
C         -12.68487958201717    5.54034496970954    0.38148014824235
C         -13.08090669252891    4.27218776353790   -0.04474071297151
N         -13.43095779362434    3.23237401280743   -0.38407517260605
S         -13.87933869785039    6.78433082415626    0.58685816652034
C         -12.67400105334137    7.90346175244659    1.14245510537230
C         -11.41259840398960    7.31986414621744    1.15920942088786
C         -10.24477370051602    8.02179380378993    1.49809208899634
N          -9.28566211582950    8.60048666330490    1.74751232310301
C         -13.06475192558035    9.22153671222668    1.50326743587123
C         -14.37213288897089    9.67414505874226    1.58320952382953
C         -14.43778605055772   11.01114777060561    1.96157621943372
C         -13.16775753652636   11.58211618287542    2.16070205406428
S         -11.89793551717821   10.47372629743306    1.89923183255366
C         -13.34138139073324   12.94350066200443    2.52060139931375
C         -14.71932448519282   13.22546636185637    2.56511943927528
C         -15.45405179313324   12.02055662660703    2.21845488498903
C         -16.80607179512885   11.86093727383819    2.15469982889236
C         -17.39469128711913   10.62641299800013    1.80526452249539
N         -17.86705931964379    9.62009866004803    1.52560866581920
C         -17.70432855305355   12.91011378737386    2.44679893694886
N         -18.43864230662014   13.75504920661838    2.69217864101630
C         -14.98854574759842   14.54552494415833    2.91731538502823
C         -13.83198727651149   15.28511091326523    3.09417177143517
S         -12.38564221488605   14.30349055859104    2.88451399548050
C         -13.77756679477944   16.65042838453489    3.47920421342489
C         -12.78392101230934   17.55737752965263    3.31165319120052
C         -11.58745905260512   17.57000098164524    2.49169899869465
C         -11.45079831476997   16.98814023885399    1.25885140113147
C         -10.30713104608567   17.13140478394172    0.44649870325545
N          -9.39372734124750   17.20742535485789   -0.24365760127376
C         -12.48035658734360   16.26342372931577    0.62453673523639
N         -13.31310873369678   15.70362240701452    0.06669249070802
C         -10.68343015706838   18.55758075874930    3.06518084314047
C         -11.39226708805609   19.31293956705311    4.03699654973149
C         -12.76056799507428   18.78438689689692    4.16538939995812
O         -13.66679162342513   19.20132703350544    4.84694925099073
C         -10.81610413531922   20.35980526707077    4.71638745772530
C          -9.48187277305449   20.66697198277519    4.43367817368872
C          -8.77970029285241   19.89584556281992    3.47419638435546
C          -9.36260564087224   18.84258030731457    2.77952988814685
S          -7.14551666720616   20.44867669058342    3.29762652067904
C          -7.41011286339466   21.68471097391187    4.47766104041030
C          -8.66099525198365   21.68873129455626    4.98821304988336
H          -3.13948329991128   -2.33980156340832    4.16084933105299
H          -1.89614681149667   -4.79986140828397   -0.02484044092079
H          -0.45833627172034   -6.56409307664849    4.78874228537444
H          -1.75350383695643   -4.40010386640879    5.46768821363622
H          -5.35530002916192   -0.82664385451177   -1.47195455498972
H          -4.76270104412720    1.53581361742929    1.59024320840304
H          -9.04867939498472    5.93082912359420    2.32545997939457
H         -15.22161303244945    9.04710030886168    1.37781689718807
H         -15.96977800840108   14.97498665078773    3.00879047634277
H         -14.63420307313640   17.00453810499203    4.04628263447709
H         -11.37949074148573   20.92563179305463    5.44194107283326
H          -8.79059039925429   18.27737084835753    2.06204968633189
H          -6.59868903065557   22.34282548621615    4.72088247112192
H          -9.00585632981908   22.38402029344249    5.73184519036831
