94
 SCF done       -205.160247318388          0.000912306945
C          -2.15555034454819   -1.60882492010964   -0.42737174054518
C          -0.88191310571917   -1.38847912505957    0.02741880857333
C           0.15618137145496   -2.34287801330464   -0.03564711399785
N           1.04280967771089   -3.07138713844340   -0.05642283790382
C          -0.41273907430479   -0.20168771975695    0.62947078027847
N           0.04675005491379    0.72418843782071    1.12998969761727
C          -2.63272490340027   -2.84927522549679   -1.02884800274292
C          -4.00985094856128   -2.70688898453952   -1.33765401755001
C          -4.75120425121900   -3.70963201392466   -1.91543908679156
C          -4.10364979352168   -4.91396097477038   -2.20465204521150
C          -2.72845938607062   -5.04923389018159   -1.89441338379653
C          -1.97947807960711   -4.03434153426377   -1.30953983174210
S          -2.13646665216352   -6.61826924048404   -2.33767785376155
C          -3.69997182088370   -7.07054180390864   -2.92186972909156
C          -4.62883417607205   -6.09757705073246   -2.79479969903736
C          -4.45400841276624   -1.36538828638945   -0.94365566883357
O          -5.58070425457979   -0.91148238293695   -1.06065152142239
C          -3.27731298865343   -0.68365220278206   -0.38857183795406
C          -3.24753217874441    0.60768119824557    0.06471707634013
C          -4.27584967098786    1.56316424915623    0.15497681514100
C          -4.03970706945106    2.85125383205111    0.64971037622374
C          -5.18480506335736    3.62606583167393    0.67719652207143
C          -6.31287961529929    2.92197525916464    0.19923206131473
S          -5.96440947177273    1.32887908177029   -0.28871454261225
C          -7.43398457715890    3.78629125745109    0.28358670909886
C          -7.02243420421395    5.02413637361044    0.80880493986436
C          -5.59200846395234    4.97065314688237    1.06320936260009
C          -4.79814468183562    5.96635825684267    1.54913228603870
C          -3.41217061208077    5.79072952924670    1.75201110039877
N          -2.28599448384824    5.65594505233372    1.91798220135241
C          -5.30028790335971    7.24564794815768    1.87166984227824
N          -5.69891539336233    8.29088479706896    2.12182414180359
C          -8.07546432879434    5.92784896133874    0.95263465936046
C          -9.28006071366734    5.38984073280610    0.53575031195017
S          -9.09826743245509    3.74290293212611   -0.05552254197026
C         -10.58672488625064    5.99582822926390    0.57879339311732
C         -11.67820171001103    5.48765791756594   -0.14253075903956
F         -11.50919551859552    4.42759307519775   -0.94802283703674
C         -12.94404087334023    6.03427897708964   -0.07021261883170
F         -13.90564019840510    5.45456563080596   -0.80610909289037
C         -13.25425331638694    7.13852125730440    0.74066183311092
C         -12.15468705696409    7.66685392618669    1.43989789487087
C         -10.88556422366117    7.12131423464167    1.36469245485862
F          -9.93028962115168    7.69645585548179    2.10415610185956
F         -12.30530132694918    8.74361799693248    2.22008862126180
C         -14.59238945891490    7.65686054134881    0.86373972406532
C         -15.07016405639823    8.56852143711261    1.79011976190367
C         -16.43620300321017    8.80218931866725    1.64029895959523
C         -17.00275390443036    8.06748787039762    0.58365059418964
S         -15.86476671283289    7.09073125170506   -0.21272401909783
C         -18.39491145911979    8.34011393786097    0.53643517461689
C         -18.70323582818855    9.24836139764897    1.56576000985164
C         -17.48564071099981    9.56625343668097    2.29503016194332
C         -17.38300003491917   10.37250343334923    3.38959469620617
C         -16.15943868014173   10.60781740765178    4.05247858879451
N         -15.16982425045657   10.80686664582265    4.59509142781007
C         -18.51486517442796   11.01915554873061    3.93083333748611
N         -19.44422959289863   11.53738324830385    4.35856044163720
C         -20.06239701943499    9.52865810266385    1.64852315167900
C         -20.79678240270333    8.83890495028712    0.69688817232943
S         -19.77018432500272    7.86364737715186   -0.34390735287879
C         -22.19550723569265    8.85032781322617    0.47757849994285
C         -23.18508573934186    9.18313910735582    1.34682109304000
C         -23.22434000862272    9.39408424924635    2.78135247658758
C         -22.43616346621904    8.78746729231651    3.72432379812546
C         -22.62312910234018    8.93123383577185    5.11587016824714
N         -22.73078328135668    9.00723905381372    6.25553582669942
C         -21.41185742251507    7.86684838744684    3.43073251115861
N         -20.58850011969089    7.08702454812945    3.24978876073737
C         -24.43938415863637   10.14585022041586    3.07141237115845
C         -25.24798204883260   10.17719486079805    1.90481946781776
C         -24.53937528726891    9.50552554680132    0.80384772983269
O         -24.92888565293683    9.29045727331507   -0.32046700302674
C         -26.48597120534533   10.77420561452755    1.88451689828426
C         -26.93991011457040   11.37705032440626    3.06140190307629
C         -26.11491279816241   11.35898749959120    4.21315294358847
C         -24.86645810719764   10.74860696305960    4.23834973590942
S         -26.87272225227494   12.17532136135702    5.54220483721287
C         -28.26089498244088   12.52046505346600    4.57050608756259
C         -28.16822189209288   12.05289681335734    3.30627887757977
H          -5.79757438826647   -3.56687793728549   -2.13661010433217
H          -0.93554102653753   -4.18947077333239   -1.09502982948615
H          -3.82941310124152   -8.05364111497752   -3.33107424088110
H          -5.65363900853084   -6.19889507195720   -3.10304130769698
H          -2.29484435326119    0.98382013399210    0.41761476070061
H          -3.06391387099956    3.17141908188729    0.97004958942095
H          -7.96373768082155    6.92599153745345    1.33219358308271
H         -14.46639714442577    9.02917711441489    2.54875361332103
H         -20.50569955186226   10.22190465901658    2.33997435546238
H         -22.52914205224265    8.60981806471362   -0.52742304622204
H         -27.08555949101542   10.77456025941584    0.98756446230248
H         -24.26764100704831   10.76692587603275    5.13395881938666
H         -29.07438084971854   13.06180510356031    5.01309855468460
H         -28.93390329998408   12.17371787153841    2.56159974753578
