101
 SCF done       -213.019217785666          0.000326172580
C           0.12784237309551    2.66049087973285    4.49010161798688
C           0.90579884515808    1.81249145559377    3.74614688291151
C           2.16146717450429    1.32233302239273    4.16376640774888
N           3.18575239812031    0.88787260735518    4.44563938446696
C           0.59259887227411    1.33287851092692    2.45667999907470
N           0.41579985622746    0.91267299724548    1.40272136353124
C           0.48298777313262    3.21072275491049    5.79330664645572
C          -0.51823858740552    4.13622399530319    6.18501917268040
C          -0.46927566572774    4.82686366886505    7.37215501093685
C           0.61745064186054    4.58977101932729    8.21870268603145
C           1.61119404600822    3.66170944201332    7.82285409178147
C           1.56329973392705    2.96673811900038    6.61949483933545
S           2.85427898852577    3.52242451284920    9.02457643149672
C           2.05174813540517    4.68244932941299   10.02504223684110
C           0.90504844856273    5.15764518840111    9.49150343761645
C          -1.55212994704643    4.19508574576879    5.14476652066286
O          -2.54185127319694    4.90769344039479    5.14438217317426
C          -1.16358163971607    3.21564875803245    4.12045927048207
C          -1.93896151916554    2.82290659490344    3.06252992204539
C          -3.20463827386216    3.27606793282290    2.65027568723543
C          -3.90119225189126    2.65764672029869    1.60417390640394
C          -5.13091663728285    3.24198757300814    1.37061966289880
C          -5.37121834747459    4.34363838356686    2.22837460909469
S          -4.10696387609440    4.62638536890678    3.33395139268494
C          -6.65530809768475    4.85930049055867    1.93619536004843
C          -7.23203978922761    4.08327598447917    0.90505845479757
C          -6.28687413812870    3.05169168908569    0.50893130111868
C          -6.45685532985431    2.10635483477968   -0.45901442615675
C          -5.47030905694193    1.14074244958173   -0.75195073117823
N          -4.67633290385786    0.34917003324916   -0.99047624964710
C          -7.63640467608222    2.03261153636554   -1.22996693161065
N          -8.59656414923033    1.97692077990093   -1.85399542155506
C          -8.51874918983038    4.49049573917219    0.58089304048358
C          -8.91717649270818    5.57699365553717    1.35170088722193
S          -7.68121068429829    6.11017814131425    2.48333808668216
C         -10.15519532835817    6.23997811340168    1.34984485347345
C         -10.46120525625143    7.36637758515888    2.12303716301082
C         -11.81747141895333    7.80241133727439    1.96776541161815
N         -12.28679603160187    8.85999192247281    2.62705818745325
C         -11.44513656186761    9.48564227433758    3.42333856350462
C         -11.96209641208532   10.67328508731704    4.14789093976916
O         -13.10052081036282   11.07186580145779    4.01862140015190
C         -10.98768107021275   11.33601508032707    5.03110214229037
C          -9.72361507340223   10.92649098100707    5.18092360510432
C          -9.15216643247322    9.76173926277438    4.48321515676331
O          -8.00056125080617    9.41313009840570    4.63564380164953
C         -10.09043860059077    9.04833130661868    3.58115178407959
N          -9.61878457017222    8.00155099947648    2.93614471465929
C         -12.55535096024849    7.00582515936685    1.08455117857747
S         -11.54921213183404    5.74553648352656    0.43344737005260
C         -13.92343817182452    7.17332994878253    0.81699805090386
C         -14.74524709847696    6.40854084569205   -0.00439258684391
C         -16.06019843293393    6.84912879770226    0.04160065277325
C         -16.23471383573813    7.95622214887081    0.90132357204252
S         -14.78325729200689    8.46312244062265    1.64586382153802
C         -17.60646032284456    8.29525362195800    0.91078696869144
C         -18.30333133002378    7.41627436368227    0.05525267534890
C         -17.35170518458312    6.48326686385063   -0.52279097261930
C         -17.60980380597346    5.47461229944115   -1.40303218387418
C         -16.58992157363883    4.62962490164458   -1.89048330595765
N         -15.76016027905805    3.94573882369587   -2.28788465797316
C         -18.90829013558530    5.21567459871290   -1.89175217221335
N         -19.95879297994890    5.00351329567418   -2.29830137341694
C         -19.66957701328666    7.67293764255357    0.01769745932774
C         -20.03265937850456    8.70696074029683    0.86727204786068
S         -18.63435071515096    9.41557065889714    1.67305939485115
C         -21.34241964254398    9.21919877085384    1.03375012426234
C         -21.85149820386233    9.96806112867092    2.04632873662602
C         -21.37735711531569   10.26209046420231    3.38385790278475
C         -20.66332338610530    9.41434154980053    4.19011134312390
C         -20.33149844188521    9.70073648376939    5.52980920252800
N         -20.02875344261819    9.89345032027556    6.61987434546287
C         -20.27206686773368    8.11866652484070    3.79554757646926
N         -19.97381384145435    7.04482542578597    3.51956273484954
C         -22.05665571381028   11.47323692318352    3.82489853617117
C         -23.10425770943982   11.76341880892311    2.91142453648995
C         -23.08202136950413   10.78054785940066    1.81340835712666
O         -23.85042940166963   10.67444270142955    0.88650715486102
C         -23.95910963630420   12.82480919188031    3.08909263091364
C         -23.76367473270066   13.64125754279162    4.20728088191478
C         -22.70414417695282   13.35196418199221    5.10195216341213
C         -21.84479329516115   12.27300318375117    4.93030268706757
S         -22.64610515489688   14.50092954258981    6.39996754859397
C         -24.01489650970954   15.33753094955972    5.75351242877300
C         -24.49749620770366   14.79016832803912    4.61669372950240
H          -1.24729909197944    5.52532990864791    7.63849866789213
H           2.34358078193329    2.26848310945485    6.36708898235266
H           2.49541859637478    4.94078308073102   10.96690145354212
H           0.27343690528799    5.88400266471802    9.96997646486045
H          -1.55886616881943    2.01653275905069    2.44650768559581
H          -3.50050373338752    1.81540161266050    1.06810767655438
H          -9.15324335227883    4.04206436304982   -0.16259423100415
H         -11.36647216713897   12.19833999942256    5.56301260483345
H          -9.03908823434304   11.44454048361322    5.83902463578867
H         -14.37826691256333    5.57859089187844   -0.58139116914798
H         -20.38858735062126    7.12295835916636   -0.56229562272263
H         -22.01770311141526    9.04835258182620    0.20011366056136
H         -24.75516693803287   13.01821766159213    2.38703009978459
H         -21.04669928305297   12.09159635242442    5.63143951689169
H         -24.37891160078708   16.20233968256607    6.27337552592362
H         -25.34245878725288   15.17444976334977    4.07468103718049
