91
 SCF done       -176.936316422270          0.000580003598
C          -5.28445854467831   -2.40342465257766   -0.10744255938943
C          -4.68875272060322   -2.97160946612252   -1.20345916526557
C          -4.65402764915607   -4.35955649914317   -1.45253901807036
N          -4.59636546797811   -5.47603924717612   -1.71392513238033
C          -3.99066936301095   -2.27094477883721   -2.20995206798962
N          -3.38319664001374   -1.78518750291592   -3.05508681457088
C          -5.89969280274990   -3.13240712782620    0.99371398844305
C          -6.26314198239585   -2.20165970841483    1.99838997248434
C          -6.86119124468161   -2.58118656899654    3.17579468474674
C          -7.10979450843196   -3.94312585737189    3.37326951307110
C          -6.74643791597011   -4.86433035836651    2.36257226272785
C          -6.14308208227173   -4.48063292574554    1.17005230270751
S          -7.15267760618091   -6.48922467429650    2.81721483716665
C          -7.78924304559066   -5.93363840278392    4.32608504485181
C          -7.70650696722381   -4.59500041831490    4.48907306214254
C          -5.91517215038766   -0.84000358830277    1.56040279895646
O          -6.14117216916362    0.18384162841091    2.19121736552080
C          -5.32602626318691   -0.98596758031898    0.21370430905644
C          -5.04569693377523    0.02169328542393   -0.67262611261514
C          -5.02964402552418    1.41855645334830   -0.40426593554179
C          -5.49200649579418    2.30545585486905   -1.37975322625203
C          -5.77962548202780    3.61993028771312   -1.07278653542945
C          -5.65668291174529    4.13899862056511    0.22580259096705
C          -5.04666744060685    3.31201001861315    1.22526037979909
C          -4.72433014518444    3.62806470858043    2.54521809742078
Si         -4.30377270625667    2.02185863540132    3.29007745633150
C          -3.72944723465929    1.33426745645611    1.72092270360900
C          -4.60951870476726    1.96780649345564    0.83733991595594
C          -6.09945097799155    5.47793104651490    0.44496464880122
C          -6.90805966690141    6.24510627359573   -0.41951642762240
C          -7.10959179930925    7.56515540251786    0.07190907969353
N          -7.85721062108915    8.44675906747757   -0.63593740803378
C          -8.58289891061209    8.03193209679383   -1.72434688778310
C          -9.50839746118917    8.80529514596538   -2.38630475367431
O          -9.92626828052624   10.09460747859383   -1.95261289769562
C         -10.14574371515728    8.31719699687021   -3.54480060349581
C          -9.88628826635872    7.08227127502948   -4.04301347064992
C          -8.96011431482590    6.16699440995925   -3.41937776336389
O          -8.72221208882848    5.04405278955185   -3.84284267474240
C          -8.30266012974209    6.67935671010966   -2.18334790340253
N          -7.49497470555536    5.86624529211498   -1.56606496489198
C          -6.53013059264692    7.84873878768990    1.29139353228433
S          -5.67691474223380    6.43751539938524    1.83865666240475
C          -6.92250987963313    9.03029700271924    2.01277793912947
C          -6.81121501333212    9.25322454348335    3.39741664970994
C          -7.41062790570586   10.35519741002068    3.94618946051741
C          -8.20233508389627   11.26656426576693    3.20452589899174
C          -8.43258883227796   10.96836660968905    1.83833036978548
C          -9.47330953611432   11.51539784521926    0.97801656068078
Si         -9.33066198271576   10.76203312922742   -0.61158769681146
C          -7.76932078879756    9.82802966304157   -0.22535570793314
C          -7.66243598951074    9.93859553317342    1.27402490592787
C          -8.72066511682023   12.39494782911561    3.89746889683853
C          -9.13889816540126   13.62334043587847    3.46847448329725
C          -9.07267780017701   14.31955635478312    2.20946558859031
C          -8.18158477101273   14.09541528502701    1.18465032884398
C          -8.22250086755846   14.75112613315105   -0.05963799614954
N          -8.23241975441487   15.20395633865708   -1.11587679790159
C          -7.05690894208842   13.25562292246863    1.27533906151924
N          -6.08922770441146   12.63668805326527    1.29575130679810
C         -10.01965405360454   15.42908244966804    2.26735452667242
C         -10.50727185547502   15.54233393918137    3.59432186111795
C          -9.92607766561943   14.46175482427596    4.41358762976642
O         -10.08361728332310   14.26392816131827    5.59838586133085
C         -11.38860049845955   16.52410593635419    3.97496565647513
C         -11.82021391687695   17.42949725203972    2.99964470982097
C         -11.33658111469380   17.30132951628020    1.67664954678164
C         -10.43532772017065   16.31452716614381    1.29256499762105
S         -12.01030289241881   18.52031115548761    0.64035053878155
C         -12.91158691577960   19.18018118869946    1.96169346418855
C         -12.72341045329568   18.52276033104804    3.12638034093057
H          -7.12817581042430   -1.84856438710064    3.92170623075401
H          -5.89086929108176   -5.21974753888436    0.42823428742544
H          -8.19356396006035   -6.65579348484537    5.00849220598353
H          -8.05286587494336   -4.07243941711904    5.36239572169286
H          -4.94444697425912   -0.24934404754763   -1.71714399969571
H          -5.69635901808216    1.94194522763403   -2.37584965644619
H          -6.17104822614438    4.25669283162291   -1.84901262247705
H          -5.07865204958043    4.52301469112552    3.02536969182291
H          -3.38528091121106    0.33610448178784    1.49847908292802
H         -10.85665776302207    8.97362457174547   -4.02415723449978
H         -10.37594026491989    6.73585472366945   -4.93909596577395
H          -6.25343883577184    8.55946443568550    4.00703514887883
H          -7.27534565663941   10.55627634188100    4.99880196011315
H         -10.19886853263682   12.20660126730204    1.36605238163945
H          -6.84141627953575   10.25174395060397   -0.64839480367880
H          -8.81451538666298   12.27030333118062    4.97365238008988
H         -11.73509448252391   16.59236898901270    4.99450228973284
H         -10.09544865921267   16.25670383271416    0.27179467475551
H         -13.53641388041293   20.03286869533424    1.77960275135134
H         -13.20034816276675   18.78962797146000    4.05211020439187
