89
 SCF done       -185.239980782011          0.000657795346
C          -5.14745415891677   -1.09715879116280    0.51734391319669
C          -4.70341121744030   -1.50018310694973    1.75053172479763
C          -4.69899406928281   -2.84192147455088    2.18743791546547
N          -4.66753234672665   -3.91041089728996    2.60617229248481
C          -4.19354035823109   -0.66166850453106    2.76461895056132
N          -3.77161912873814   -0.06459228468420    3.65033293267967
C          -5.68863627079126   -1.97574398747801   -0.51498379182761
C          -6.07171800690279   -1.18710595144188   -1.63015613421667
C          -6.62447988748956   -1.72186294719421   -2.76889052034964
C          -6.79849516960624   -3.10807168270033   -2.81598951546887
C          -6.40661884390176   -3.89109057375627   -1.70302047281435
C          -5.85592975674633   -3.34703064177813   -0.54776166867060
S          -6.70360730763269   -5.57662766764366   -1.98633302349148
C          -7.33642302734418   -5.22687356012044   -3.55787204855023
C          -7.32983330116749   -3.91113638900778   -3.86394668066703
C          -5.76424661331605    0.22054704153781   -1.35191785503585
O          -5.94272096099263    1.16242854551088   -2.10487660565867
C          -5.17755552291790    0.25729604567882   -0.00343448026397
C          -4.71291821895127    1.38500159422846    0.62189441033988
C          -4.69380801636256    2.70657191114061    0.15459458289064
C          -4.14176543568260    3.74635124481602    0.91696514039223
C          -4.17210184768298    5.00826323796216    0.27836158986247
S          -3.46493915191949    6.19316026896344    1.31419565284509
C          -3.20108002728590    4.89656272076329    2.51272777617996
N          -3.58882352644692    3.73090152989596    2.15236013750931
C          -2.56523235836514    5.20337708833651    3.80852950444631
C          -4.79034315463109    4.97505957564462   -0.96756793749315
S          -5.31418120241320    3.34499999517854   -1.34688298273473
C          -4.98130749582940    6.00984092336512   -1.91301625661526
C          -5.82369888153717    5.80464473200234   -3.03887387097528
C          -5.97666079893100    6.77340285879508   -4.09216387676403
N          -6.66163315634094    6.44276831378869   -5.19194912640401
C          -7.27244653593798    5.28811194983522   -5.25662473643815
C          -7.24085396863750    4.37845135539289   -4.14786763091566
N          -6.50618678624695    4.65832821384880   -3.10114512501151
C          -7.98721552525211    3.17491461620935   -4.18180744713096
N          -8.60743149087291    2.21606108634466   -4.27153282732161
C          -7.99483418832247    4.97907597846757   -6.43604029346968
N          -8.60803013829746    4.73176109229237   -7.37145557984400
C          -5.34965088779702    8.03956164800181   -4.02470458065062
C          -4.51257207116933    8.24735470820429   -2.90677295491466
C          -4.34086115230121    7.26888485436518   -1.86094858788948
N          -3.50332116232282    7.70881806636072   -0.92208946049122
S          -2.99118155592537    9.18203153616908   -1.29907972279603
N          -3.79132462000884    9.34492191933624   -2.67989822507981
C          -5.50061350084740    9.05125602126982   -5.00515287997325
C          -6.48307474988080    9.24652961026501   -5.97417160936604
C          -6.25191555236240   10.40934492302935   -6.76223725046094
S          -7.49769775625117   10.58809247023195   -7.93613476533038
C          -8.24586608536578    9.10054936089328   -7.26391158108550
N          -7.61446505804988    8.57155170165583   -6.29187136352998
C          -9.50380658300884    8.58976842804254   -7.83902881091275
C          -5.11998597359743   11.13333933713432   -6.41905592229671
S          -4.33152185261664   10.33366133717461   -5.07341524918760
C          -4.59095418521709   12.24485081361475   -7.10032960374075
C          -3.50142939397610   13.00217237641094   -6.78353554398571
C          -2.71035528928593   13.08804039001866   -5.57560831003079
C          -3.19387703126642   13.04032765820236   -4.29309514078181
C          -2.38984727493167   13.09228077621614   -3.14034034570139
N          -1.77400525593672   13.07576037579877   -2.17081367432598
C          -4.57480948464315   12.99281913390150   -4.00683150846940
N          -5.69245890668621   13.02905561932141   -3.74795953369181
C          -1.37099647866059   13.50404880961208   -5.96976333929586
C          -1.41199754633957   13.92686899272312   -7.32466153816749
C          -2.77261522658562   13.72370519169776   -7.86200287116881
O          -3.19206070927715   14.01308961529085   -8.95866641041630
C          -0.30372634501159   14.41540272228861   -7.97310632893304
C           0.89760504459570   14.47640964943877   -7.25924865139775
C           0.92766557653363   14.04305107777751   -5.91160258798984
C          -0.19521606054829   13.56069756381720   -5.24880565748888
S           2.51919715132298   14.19721952216042   -5.23762386874231
C           3.11787466930447   14.83063176491485   -6.73191831814617
C           2.17638764011867   14.92462718207459   -7.69579595015856
H          -6.91259442711079   -1.08777699866958   -3.59299396898080
H          -5.57661893468484   -3.98850026565844    0.27115627325597
H          -7.67883461380362   -6.04237685723212   -4.16480862186605
H          -7.68428712418708   -3.50616419028188   -4.79435182883350
H          -4.27451966481719    1.28537443680376    1.60810659131583
H          -3.14398724007773    5.95499614865930    4.34346848769432
H          -1.56381452528684    5.60224123621619    3.65215838854322
H          -2.50665934866029    4.29590434669283    4.40321498758279
H          -9.52134701990119    8.74371905632096   -8.91547888515630
H         -10.35309899693359    9.12017797229770   -7.40665689290283
H          -9.60183703588397    7.53028414759553   -7.61375812065852
H          -5.04201373134785   12.45371001006072   -8.06635747885095
H          -0.36067314005567   14.73925162144682   -9.00070461790607
H          -0.13084397590560   13.23580942957808   -4.22305661421399
H           4.15515256306535   15.09607757240670   -6.79645970962381
H           2.36479273781633   15.29442371621508   -8.68738187807334
