97
 SCF done       -191.113497612921          0.000829557890
C          -0.59279206092452    5.99128136338780    5.64689461945284
C           0.51755792245796    5.41056709587021    5.08665140736608
C           1.78921184505091    5.38553155518995    5.69545370126941
N           2.84867842903512    5.32640863617689    6.13414352524832
C           0.56421215351672    4.74524254096325    3.84469990008446
N           0.69156251645215    4.18521676262200    2.84939758712111
C          -0.62877390030727    6.65137509852911    6.94866547784037
C          -1.95810374422230    7.06918163623303    7.20900020730747
C          -2.31836344254286    7.72726585780156    8.35948593356711
C          -1.31788241618567    7.99112850232920    9.30015972918333
C           0.00673030961117    7.57266236460387    9.03230379214599
C           0.37031379906279    6.90368181869183    7.86868332037261
S           1.07670955857183    8.00709506929795   10.32796679672490
C          -0.23129917163884    8.73037611820771   11.19840083601171
C          -1.41711294025371    8.65388855197014   10.55597317131055
C          -2.81130387485946    6.69190605497333    6.07147796154491
O          -4.01331356570536    6.88324750837119    5.97830953339084
C          -1.93023700542347    6.05165988080785    5.09119634257302
C          -2.30158571866303    5.62709866427257    3.83882622566351
C          -3.54599864984270    5.66694933966511    3.19866864052911
C          -3.70972609894458    5.23634222850772    1.87719333758906
C          -5.00493837121342    5.37887866569745    1.42694481694023
C          -5.87241392923623    5.91331930584832    2.40312650649093
S          -5.05914909100358    6.25061487981770    3.88435411852582
C          -7.16418924758936    6.06366543516362    1.90086871478689
C          -7.28688078342858    5.64492410768951    0.55670655214344
S          -5.78805887199182    5.05659656615393   -0.10769607393399
C          -8.60517128371527    5.83981721092679    0.18009222307372
C          -9.25805397170163    6.39448025059177    1.29212016989876
N          -8.37219208453338    6.51094219699825    2.33042942453361
C          -8.62606696655373    6.84675325160909    3.70429392389559
C         -10.63267542445133    6.81759513702459    1.29962571378847
C         -11.09876201920175    8.00066570705281    1.91675194660798
C         -12.47670610712399    8.41451503907419    1.85571631935514
N         -12.85338132973688    9.54096580434677    2.49561244270199
C         -11.95165689953856   10.26645698292934    3.09273214278950
C         -10.58949710676580    9.90817017169050    3.07136489245496
N         -10.18915274174746    8.80117199886154    2.51584446852092
C         -13.44324888874978    7.68303017420705    1.11900641349914
C         -12.96277447051694    6.52516614900012    0.47532778301664
C         -11.58854005896063    6.09813098767582    0.55942436812872
N         -11.38503766319400    4.96486335175829   -0.12095898319309
S         -12.75848532518278    4.50121667870728   -0.79913451684793
N         -13.69438561999033    5.69417526936342   -0.26987546239099
C         -14.80505560217795    8.07135094213945    0.96754883744771
C         -15.47117349454041    9.13689110481005    1.54895121811489
C         -16.79172111113230    9.22545059699451    1.12841421264471
C         -17.15736242580191    8.22891694568994    0.20959132995667
S         -15.84438694077379    7.15311227979296   -0.11141608513206
C         -18.47508923316078    8.38650161965413   -0.21814354170234
C         -19.12075205823123    9.48579100101566    0.39671062131985
S         -18.08206805111212   10.34837947137691    1.49343709195690
C         -20.41835304352730    9.52443078673340   -0.07707751833498
C         -20.53382302373410    8.48720451471122   -1.02116600749187
N         -19.33742096989761    7.79467451057117   -1.07644615498648
C         -19.06156397598288    6.54038393407564   -1.72005999096509
C         -21.69868465353631    8.23242378924779   -1.77532502372608
C         -21.88406638794288    7.65572401329840   -3.00027632485356
C         -20.99765480887284    7.38101743673922   -4.10525757461399
C         -19.82257962757638    8.03574749144537   -4.38505550185625
C         -19.02062857063632    7.76705255822990   -5.51099952686126
N         -18.31204350134201    7.56586501811010   -6.39219199268798
C         -19.33060965256901    9.11861238816996   -3.62933281058452
N         -18.91243251748911   10.03644860243999   -3.08110681600102
C         -21.69794938021487    6.48440665718406   -5.01951529609319
C         -23.05119133917994    6.38388110478637   -4.60569848100185
C         -23.23905404253615    7.16571540359327   -3.36910020212053
O         -24.26474942550337    7.34387206472249   -2.74974362782907
C         -23.98112331462407    5.65229441776664   -5.30332292265490
C         -23.55519204416156    4.98061263200299   -6.45389639823279
C         -22.19918624777792    5.07388817876878   -6.84778135078788
C         -21.25848147635739    5.82115115862969   -6.14772664341892
S         -21.89921555189619    4.15816187162993   -8.29097264963171
C         -23.55864537848763    3.67447702625110   -8.35814771851153
C         -24.30777341585326    4.16827147012315   -7.34850860655441
H          -3.34002900445916    8.03152969805790    8.52639745554443
H           1.39436804112443    6.60880096043096    7.71290794017514
H          -0.02726762859757    9.17532970199752   12.15288327224843
H          -2.33879869536630    9.04841645508246   10.94398895393346
H          -1.52103343264393    5.20869820742739    3.21505240377019
H          -2.89526037944389    4.84670942348423    1.29363464169258
H          -9.05691439954286    5.64353916784067   -0.76948757734816
H          -9.66838900689518    6.65152267386617    3.94846296257854
H          -8.40917487145068    7.89826946155835    3.89476155017399
H          -7.98404552408684    6.23423472586931    4.33885856041257
H         -12.30071111406569   11.15524670004714    3.60045410972710
H          -9.82849952459282   10.53217419594933    3.52022246616375
H         -14.99141342333084    9.80653704161185    2.23596442859592
H         -21.18592848413076   10.23326281177161    0.15829441733448
H         -19.99339283126076    6.04761687655616   -1.99260094456121
H         -18.50477211195931    5.90193793041275   -1.03185314011326
H         -18.45114014136994    6.68074669757254   -2.61627436776479
H         -22.62175890615843    8.52491388722855   -1.28203197467814
H         -25.00725157129633    5.60324133686111   -4.97366421048468
H         -20.23561435544870    5.86215955524160   -6.48415456079895
H         -23.87468321456189    3.04024204956965   -9.16343041291934
H         -25.35819383909383    3.97457747984785   -7.22761046895113
