125
 SCF done       -248.864162298109          0.000782806316
C          -9.78798104893934   -3.37207421102454   -1.49345453648159
C          -9.69011408451478   -4.51399496745458   -0.75094980689555
C         -10.36784404134823   -5.71135499307631   -1.06718976135563
N         -10.89699847737892   -6.70518770796366   -1.28567350432076
C          -8.84732643525527   -4.64255884731261    0.37425469206405
N          -8.16391493893157   -4.78970053541062    1.28434024698498
C         -10.55976331580224   -3.18227839602030   -2.70925357913799
C         -10.12012899333040   -1.99238004788140   -3.34907516976968
C         -10.67493258938121   -1.54547205827560   -4.52476802064769
C         -11.74454954934168   -2.26740101172768   -5.06004799019448
C         -12.19678245188530   -3.43652274036995   -4.39423015837065
C         -11.60519400064266   -3.91809132513308   -3.23400028897725
S         -13.56193951353794   -4.12695399833718   -5.19843612900280
C         -13.52348002293293   -2.88386364870738   -6.39263891058437
C         -12.53068826207654   -1.98427309406650   -6.20946552515082
C          -9.10002741306445   -1.33814616769921   -2.51827946700555
O          -8.38272144707380   -0.40912131586937   -2.81020622771419
C          -9.11506120630254   -2.10200642477349   -1.23306124860473
C          -8.76391727351993   -1.63225132032890   -0.01866207267852
C          -8.40093043177136   -0.26795520093891    0.31197800698335
C          -7.28779463266548   -0.16444943111342    1.26621507572430
C          -7.33507884011076    0.69470567412868    2.36587078901310
C          -6.26161739772830    0.78029324879586    3.22568248435666
C          -5.13056616121495   -0.01223412222956    3.02998570609999
C          -5.09634092036958   -0.89890832730743    1.95649925866065
C          -6.16751120357800   -0.97648621348949    1.08886638789503
C          -3.99270228466562    0.16538869550360    3.98236276772369
O          -3.83075219541874    1.17939470738935    4.60314630043437
O          -3.15566053302049   -0.87308173410919    4.12183572529291
C          -9.12235124671477    0.80720447810018   -0.12646137526411
C         -10.37860855229820    0.62117318631388   -0.87492715515288
C         -11.35842513680984   -0.27166115169557   -0.44327071389240
C         -12.45908600664175   -0.53641590209332   -1.22961005529078
C         -12.62852276704547    0.11443569584713   -2.45023836240068
C         -11.68705070349079    1.06106463919084   -2.85080340547830
C         -10.57372338865239    1.30590134140712   -2.07361672816118
C         -13.76343482678439   -0.29951937695338   -3.31840638630565
O         -14.24209615243317   -1.40094155968166   -3.27929792632415
O         -14.22534632426875    0.61659083235424   -4.18822630182786
C          -8.72228934388813    2.18200626927313    0.08576029277375
C          -7.37934972403048    2.61407298091945    0.04261268934881
C          -7.01038118397134    3.98287697356390    0.29289248596511
N          -5.70907011852258    4.30999331161580    0.38662155788554
C          -4.79724237726153    3.40474109347107    0.17215502087143
C          -5.17152465727125    2.07222523285202   -0.22654342485755
N          -6.42632650765963    1.72080682906567   -0.26974050127143
C          -4.17673090712683    1.11920963354053   -0.56031956064780
N          -3.34737286318313    0.36533754961874   -0.79534817394517
C          -3.42740518316541    3.75804307977944    0.27410274838680
N          -2.31062801770942    4.00716300124317    0.30746737540076
C          -7.97126857191692    4.99536319739960    0.50123453627674
C          -9.31390719968649    4.58139744676454    0.44693219077864
C          -9.68094960126250    3.19464078762053    0.26991530396518
N         -11.00910990654652    3.03104714020735    0.30259414464451
S         -11.70902237371788    4.45704809435617    0.48763079931360
N         -10.39402700656100    5.36426934788447    0.54608448972460
C          -7.57235762868996    6.36806073697207    0.72926505906233
C          -6.40271334229571    6.84361279986072   -0.01475618137602
C          -5.39797536223798    7.56557275772946    0.63191399009293
C          -4.29012657968511    7.99285470825380   -0.06999947058888
C          -4.16884179965319    7.71214118181137   -1.42865244291245
C          -5.17297830249742    6.99909811141511   -2.08195354075045
C          -6.27760252895679    6.56973598562818   -1.37985208859731
C          -2.96170849567320    8.18500429732252   -2.14499967107670
O          -2.11975222968979    8.90098413316978   -1.66679032091322
O          -2.88641915148138    7.73933179780536   -3.40918382151342
C          -8.22106141167714    7.19726579398134    1.61274280705312
C          -9.21193748958436    6.67497295194546    2.56864093108509
C          -8.94677411408206    5.51922367500775    3.30595826717388
C          -9.86687108090518    5.04482005015944    4.21643886806411
C         -11.06771087755996    5.72236448772262    4.41933996111191
C         -11.34162988540195    6.87325513901458    3.68441315018675
C         -10.42400118385125    7.33845228046699    2.76606262069913
C         -12.02549141164690    5.18258807089259    5.40990336720464
O         -11.94323097607464    4.09015962588374    5.91169374702391
O         -13.02219218015443    6.03203644565458    5.69990435737126
C          -7.99342089887325    8.61150282051465    1.57075405184255
C          -8.29282053605539    9.53616738704549    2.52059247762104
C          -8.62849182065438    9.39216672555138    3.92342167240767
C          -8.10188999634332    8.44764418384592    4.76332196024346
C          -8.44865605276410    8.31963607401828    6.12131521319327
N          -8.74049381314477    8.16704900908898    7.22052123220747
C          -7.08847932307051    7.57150072222968    4.32469977364765
N          -6.20853386584712    6.91919654494078    3.98186720773868
C          -9.40657725984748   10.56042153424405    4.30361026539061
C          -9.32680609956374   11.51580447566916    3.25488612222119
C          -8.54767326310608   10.95485910980588    2.13437858730163
O          -8.23982169347493   11.48948162297053    1.09524167720434
C          -9.92633814225031   12.74943500098703    3.34232686996281
C         -10.64221229014700   13.04781588934018    4.50596408564931
C         -10.72566406288376   12.08120098898450    5.53869941395834
C         -10.11265698623414   10.83628945085617    5.45758009349457
S         -11.66683564375132   12.66652377110249    6.87259677155575
C         -11.93123767225055   14.16955994866204    6.05882978228489
C         -11.34724123671750   14.23755531636065    4.84249741648338
H         -10.30852124421284   -0.64956405266702   -5.00200602741136
H         -11.97876150209241   -4.81093658390844   -2.75996352526495
H         -14.26090761777901   -2.89398693787121   -7.17161406212643
H         -12.35710426732233   -1.14055119678292   -6.85280781405953
H          -8.76097666864693   -2.31553961028894    0.82384840620905
H          -8.21759198550140    1.29419744941351    2.53947369012376
H          -6.27426346253403    1.45646183525506    4.06731663537874
H          -4.22407892593038   -1.50605235667920    1.75639416968059
H          -6.12426148241443   -1.64148399175120    0.23992746722969
H          -3.41635864689948   -1.64131532391593    3.59622819735881
H         -11.24368546825227   -0.76917327479709    0.50830841294133
H         -13.20290214417081   -1.25467874242729   -0.92022843388430
H         -11.78138842107637    1.57310127982047   -3.79981807385742
H          -9.81770713760188    1.99449532222584   -2.41916786132320
H         -13.79834298788944    1.47665924071262   -4.07825712947031
H          -5.47148419130658    7.73918389737751    1.69468879793347
H          -3.49890895418398    8.54076256481872    0.41797355850216
H          -5.07724936620282    6.79058263474476   -3.13608355067715
H          -7.06406184366270    6.02816625758624   -1.88723091854084
H          -2.07339930962356    8.06985175125844   -3.82225408798032
H          -8.00167989135196    5.01252330079757    3.17740067329277
H          -9.66989176098125    4.15554138966989    4.79579708710435
H         -12.27578051166448    7.39117720062989    3.83515340575103
H         -10.65317981678061    8.21284634640969    2.17520884543620
H         -13.60533312241827    5.63684524924490    6.36691166664473
H          -7.66128400940678    9.01800450624340    0.62067992360439
H          -9.84399874512736   13.46359310055126    2.53777403033473
H         -10.20167709330412   10.12522417852250    6.26268842675749
H         -12.51720744605989   14.92190228223490    6.54994950714135
H         -11.40378497161037   15.09321804004559    4.19440571242380
