130
 SCF done       -258.939133384618          0.000545296113
C          -8.11068071734058   -1.30803074529055    4.96699674065912
C          -7.52164353068443   -2.33403612160977    4.27700794530745
C          -7.46643640805878   -3.66496302942226    4.74328127198488
N          -7.39186472684245   -4.76359766699086    5.06696017878536
C          -6.84115466999709   -2.21626497403359    3.04562543371783
N          -6.24940093932084   -2.20839666130838    2.06162618601482
C          -8.70768507772746   -1.41669236713181    6.29034913535016
C          -9.00021189524192   -0.11247861337321    6.75894346280589
C          -9.56672003858070    0.12312984991339    7.98866026509895
C          -9.86927947077277   -0.98116143980008    8.79017278587748
C          -9.58143680401422   -2.28183336154879    8.30985491888786
C          -9.00118550144886   -2.51992757402696    7.06976049891274
S         -10.04825514138368   -3.49398440530285    9.46058824041751
C         -10.61037153376674   -2.27596173622116   10.55220905295642
C         -10.46001504622797   -1.01748906033157   10.08458977835710
C          -8.61445140482135    0.88043625844047    5.74095752545971
O          -8.66104970349434    2.08488436850185    5.87933712227685
C          -8.17734399005211    0.09113914846306    4.56065484039670
C          -8.01170675364086    0.50072092540755    3.26993748749305
C          -8.07073259161009    1.78883152366497    2.68613325720155
C          -8.11553957449095    3.04769845795957    3.22904145172381
C          -8.17073848701111    4.08114261518510    2.27166619226971
C          -8.19094123779128    5.47396261670689    2.50695063453064
C          -8.23595768074686    6.03988990710907    3.83767780360752
C          -7.60072851171213    7.16488933148120    4.28847347939104
C          -7.90255519208142    7.45450727067066    5.63408056672642
C          -8.77376684711591    6.57861408969092    6.21866200541764
S          -9.23151907158846    5.35327738832617    5.09228265542370
C          -9.30982692090800    6.58987476463954    7.60299231674354
Cl         -7.22284348394802    8.80195039120852    6.46169377264984
C          -8.18407650068587    6.28993190124634    1.38020982840379
C          -8.16780557020493    5.79076747272260    0.05370550428388
C          -8.12911074606212    4.40149593020223   -0.18385840979253
C          -8.14230364032581    3.58204667867112    0.94079874830476
S          -8.06758446769348    1.84793572625206    0.92470978892234
C          -8.05635131018016    3.83710071908524   -1.51617769453141
C          -8.65939316840244    2.70525986367850   -1.98517955023315
C          -8.30931325315225    2.41163188096121   -3.32095967046099
C          -7.43423698601645    3.29425196069946   -3.88395222611324
S          -7.03296205513207    4.53419798294079   -2.74548597048979
C          -6.84552510379813    3.28398040806082   -5.24654944854081
Cl         -8.94413128125999    1.04743754977112   -4.15740910709135
C          -8.26142239273111    6.83464215874857   -0.89685805425785
C          -8.32713580987258    8.08185572355844   -0.34459328050268
S          -8.26112943266024    8.02634965731710    1.40002360922222
C          -8.46550066966773    9.33462874930357   -1.05257395779328
C          -8.92249224498134    9.36618041412239   -2.37346414565412
C          -9.07849132877299   10.55497611236076   -3.04839495723401
F          -9.52772530417237   10.47887437818499   -4.31650596793241
C          -8.79053676321972   11.79926311279396   -2.47042101501827
C          -8.31828059962550   11.76499775288642   -1.15510665540178
C          -8.17172838662341   10.57700899561972   -0.47707183265936
F          -7.71548041514279   10.63440506415002    0.78761751810381
C          -8.96279598262242   13.05966408985152   -3.15484655874993
C          -9.60226246305212   13.32083458211867   -4.32996700995103
C          -9.60000718816260   14.69026083808226   -4.69541609744406
C         -10.15380230856100   15.27497829999040   -5.85183247534470
C         -10.76298238514433   14.49441325517118   -6.90911782981541
C         -11.86699435271450   14.80786117510929   -7.65088291636037
C         -12.14739733111942   13.84498216105134   -8.64306721949302
C         -11.26674778594966   12.80261292194595   -8.68460830452371
S         -10.05951136753598   12.99874206238271   -7.46266334988603
C         -11.25105351076536   11.63398767993555   -9.59985956274129
Cl        -13.49478924355244   13.98620708848187   -9.70552760066055
C         -10.06474323789903   16.66084540327308   -5.94581454242485
C          -9.41498112020600   17.46387483641935   -4.97358207561128
C          -8.80457319234973   16.87235765467315   -3.84663562653915
C          -8.94667270315601   15.49352596833116   -3.72808189556769
S          -8.32146326632324   14.52314260193008   -2.42947076300969
C          -8.01356539173561   17.63665505874592   -2.90725142423212
C          -7.88199493388908   17.46280053426423   -1.55734027677092
C          -6.94988275201539   18.35114456244159   -0.98264712557780
C          -6.34770371445749   19.19798236645122   -1.87040983290601
S          -6.95082832460749   18.90715591749945   -3.46119737068470
C          -5.31980779795040   20.23642303231724   -1.60817583733754
Cl         -6.59520928047632   18.36852067705745    0.70069548513680
C          -9.45994685315304   18.83258655664603   -5.30895175827461
C         -10.06300696935304   19.09221425312665   -6.51200363919666
S         -10.66601640435119   17.62755634718300   -7.25874137638768
C         -10.30478903149181   20.34418989267125   -7.13548439939289
C          -9.68962434775011   21.53440350913693   -6.91391559035101
C          -8.49688992634778   21.90662618383125   -6.17788253759854
C          -7.36352924645850   21.15055478719237   -6.02855925645777
C          -6.22150313359695   21.57668163046555   -5.32382179124379
N          -5.28647307246828   21.86544631496355   -4.72263547297884
C          -7.19462053065586   19.88196772901509   -6.62146854769303
N          -6.99441537286872   18.87408703727461   -7.13206016200889
C          -8.61254083391514   23.32456764236775   -5.85943251178735
C          -9.69927158439611   23.86828008035067   -6.59328260863176
C         -10.36574438468467   22.79205129266848   -7.34864137226718
O         -11.29371975534252   22.88391848214308   -8.11773824043308
C         -10.02433423996709   25.20267363755395   -6.54482891184683
C          -9.25272562971524   26.03450492209153   -5.72769523562851
C          -8.18270182026796   25.47787702382907   -4.98552901979448
C          -7.84603848237751   24.13056052119144   -5.04055848315228
S          -7.37819146866220   26.68844842591597   -4.03828366778969
C          -8.45249644368009   27.90521236058099   -4.63578132144332
C          -9.37583821264904   27.43463566615777   -5.50215808786698
H          -9.77324803366425    1.12971509385089    8.31786179512816
H          -8.80668140935507   -3.52909704676869    6.74731830271987
H         -11.02639649808807   -2.58289578943055   11.49210339124814
H         -10.75310214844242   -0.13559667611918   10.62494619361429
H          -7.84879866093082   -0.28280184957208    2.53814821923535
H          -8.09599349425620    3.21043120744192    4.28952403012823
H          -6.91121930663295    7.74715147103811    3.70599106655288
H          -8.70693720273466    7.24698144929013    8.22533577015153
H          -9.29953716944394    5.58551266703732    8.02171361837341
H         -10.33919313250540    6.95020377642987    7.61355749230304
H          -9.35657253452957    2.11381301992510   -1.42181416434600
H          -5.78339538780426    3.04151984915448   -5.20285056807983
H          -6.94722657612213    4.26039365090705   -5.71750231023841
H          -7.34834068078261    2.53770806918209   -5.85659119806359
H          -8.27402318084110    6.65998256715624   -1.95561915545060
H          -9.17974916988758    8.45274176648131   -2.88365311583685
H          -8.06874389665822   12.68403068527073   -0.64793772917889
H         -10.08702276763199   12.56668572173589   -4.91859564903171
H         -12.48656907649878   15.66837177681570   -7.48041236867528
H         -12.19179251386522   11.58017222546277  -10.14236144763365
H         -11.10479562887264   10.71154559230800   -9.04070691284904
H         -10.43769076317308   11.72287526534243  -10.32065796861792
H          -8.45086726217607   16.75830835411556   -0.97984050531632
H          -4.38897211239395   19.77050681080619   -1.28344979208288
H          -5.65240557113902   20.90349756112243   -0.81322461779485
H          -5.12537975229840   20.81681753816273   -2.50709185701801
H          -9.11291475301833   19.61113565500366   -4.65499831799251
H         -11.13222636927573   20.37594215676583   -7.83752607885945
H         -10.84850185975564   25.59270278316391   -7.12160177262949
H          -7.02591518843384   23.74872317352768   -4.45512260844159
H          -8.32352176070215   28.91405867008245   -4.29488531943807
H         -10.12464837708193   28.04462439606836   -5.97401227891968
