99
 SCF done       -205.471553546054          0.000635719597
C          -5.03223769827671   -2.28189685217982    0.18678411832210
C          -3.87366953598796   -2.79134703491826    0.71219675862251
C          -3.59366927298126   -4.16966131305400    0.82506726207041
N          -3.30579964206922   -5.27475794722236    0.93916888538657
C          -2.79115034832065   -2.01032507861352    1.16690786050197
N          -1.87726523207597   -1.42419037795604    1.54105073709939
C          -6.15109889733172   -3.05298149721470   -0.33566097469576
C          -7.08317663111330   -2.16949853559052   -0.94078854299178
C          -8.24753565761222   -2.60802573915404   -1.52304966377843
C          -8.51415543694104   -3.97966765138844   -1.49596915885066
C          -7.57941600891150   -4.85464852431959   -0.88836179082290
C          -6.39701723913846   -4.41388488510688   -0.30787393457256
S          -8.11428154988837   -6.50308103139558   -0.97453913618150
C          -9.55265683727253   -6.01895897227448   -1.80378150556767
C          -9.63697961768209   -4.68642546038698   -2.01054897265065
C          -6.58108076633918   -0.79244373481466   -0.84542703489480
O          -6.95387621869738    0.17547380698352   -1.46434874296518
C          -5.37533291374950   -0.87632743445030    0.04371367134051
C          -4.74795898959742    0.19583183707178    0.58576650707516
C          -5.33563406295511    1.49393796608891    0.64377121902364
C          -6.67290807915479    1.82220368658186    0.82579462626372
C          -6.77262194586350    3.22897236358125    0.94035247783443
C          -5.44462313663104    3.79001556965261    0.78489507399157
O          -5.02991845913890    4.92867877732376    0.74407623768682
N          -4.61377793595278    2.65628338929083    0.66169477814598
C          -3.19088105760036    2.76167661230054    0.48816601041205
C          -8.11904784280275    3.55337363695757    1.08748855026694
N          -8.83586262671593    2.39467778098831    1.10514697692042
C          -7.99905833718365    1.26311832339001    0.98143915748559
O          -8.40277688300186    0.12161299829644    1.03551162587098
C         -10.24362863802700    2.25549475409801    1.36070162553020
C          -8.61813535152368    4.89763933348349    1.14790276976745
C          -7.84837052110439    5.85148019905298    1.85220134783793
C          -8.09131449869230    7.26106243800190    1.75736175853002
N          -7.29083185825814    8.12014980019033    2.43295383252659
C          -6.32514106049111    7.64175444044470    3.14412561203073
C          -6.13875734584948    6.23945819917852    3.30131433200520
N          -6.89370885151982    5.39184493050310    2.68837471116229
F          -5.22396814459098    5.76735797088359    4.14016709816305
F          -5.53686324083295    8.50942261391892    3.77148049786101
C          -9.17311406033095    7.76046393989430    1.01311851869731
C          -9.99013670267732    6.80885839437528    0.37401302600188
C          -9.72596999599797    5.38821844606322    0.43646395139609
N         -10.59256363525760    4.69964247380643   -0.31422461447800
S         -11.61871436247573    5.72709070271732   -1.00051448728269
N         -11.01898133337198    7.08468124039837   -0.42828175053942
C          -9.55492663534125    9.14371728174048    0.90168471489536
C         -10.86210648710479    9.60650933528927    0.99075103765569
C         -10.85568088370286   11.00667797977002    0.77874850970585
C          -9.48332894946410   11.40374510351370    0.55298769057463
O          -8.98177859748412   12.48071594095954    0.29471774972985
N          -8.74468233617261   10.20889106604375    0.64964193018794
C          -7.33312771693877   10.18804848188496    0.37721204568312
C         -12.16886947211306   11.46974945963933    0.87508404601725
N         -12.95744535496615   10.38710224446559    1.18875454739213
C         -12.22081868133671    9.19086224822884    1.27024020230168
O         -12.71603322868344    8.11814628898115    1.53929654895894
C         -14.38584517966438   10.40114205548683    1.34590868640221
C         -12.70611790064122   12.77676313678223    0.81179295187335
C         -12.19304770036195   13.92038201354715    0.28046292132353
C         -11.09064862738172   14.21655376435521   -0.60069882274544
C         -10.54875801139026   13.38281341652964   -1.54440445510719
C          -9.51241566140448   13.75039416102019   -2.42799163035193
N          -8.67456127805722   13.98648301073024   -3.17529015659393
C         -11.05418915659570   12.10115235207819   -1.83436458399817
N         -11.45223738727335   11.06700505515052   -2.13426061859263
C         -10.78668946683717   15.63513296154294   -0.45366425432732
C         -11.81327501114618   16.24919399479061    0.31122636228930
C         -12.77973653717675   15.22549627970280    0.73027034463403
O         -13.81353949080119   15.36542399184609    1.34234783348479
C         -11.82015083344764   17.59658018516115    0.58611596306684
C         -10.76229068476252   18.36797621202778    0.09621580872411
C          -9.73350961364138   17.74069641436692   -0.64845631902687
C          -9.72956602799611   16.37983201184709   -0.93512566188451
S          -8.52612963491843   18.88429441018675   -1.13800453187893
C          -9.39110587020052   20.16765812061604   -0.36448347306018
C         -10.53133157397388   19.76572120360238    0.23778135667265
H          -8.93481551299188   -1.90966816024931   -1.97355838374261
H          -5.71846154578444   -5.11835674941220    0.14395743373542
H         -10.25800469408105   -6.77496823756838   -2.08969113942094
H         -10.45891034259014   -4.20502249050685   -2.50860657851528
H          -3.78174614405924    0.08633666208114    1.06101090873267
H          -2.94928978227913    3.82415496780632    0.46732635886046
H          -2.87670403142659    2.29849207880321   -0.44863556279840
H          -2.66085702994785    2.28952977889175    1.31791269007012
H         -10.51015459968189    2.73567503342914    2.30384428030586
H         -10.44959815264811    1.18716338333006    1.42172589268737
H         -10.82483170542749    2.70277058854697    0.55406220526355
H          -7.08339398512861   11.13482330528628   -0.10238035236624
H          -7.08839290044736    9.35958372998146   -0.28704081347868
H          -6.76143525468910   10.08847509639499    1.30027473408281
H         -14.87390829758470   10.77335548233148    0.44377124743513
H         -14.68364188101835   11.01340371835839    2.19974165781957
H         -14.69174330130015    9.37024097131965    1.52432058876425
H         -13.64615965272023   12.92262730470169    1.33747245141141
H         -12.61657879758793   18.04075161029405    1.16286669845103
H          -8.92145206421224   15.93982922336676   -1.49516184974140
H          -8.98437449759467   21.15922618934511   -0.40870606241294
H         -11.19649337376161   20.42286177615036    0.76811554534362
