67
 SCF done       -150.840539073463          0.000530406729
C          -0.38796282617708    0.98326714357178    0.17354267912609
C          -1.13502749444840   -0.12184624020455    0.49668778342886
C          -2.38171058966252   -0.05014485563464    1.29550638523253
O          -2.55946075456356    0.81310697679682    2.10811351498254
O          -3.32916952833254   -0.95786855951004    1.02568389119941
C          -0.41933138868480   -1.18691526138824   -0.14988332314625
N           0.62412151416831   -0.69378401643186   -0.78218788261210
O           0.63696496456618    0.63838324107774   -0.58982416917663
C          -0.63855339255625   -2.61189752768571   -0.16952884562103
C          -0.11819316259127   -3.47288623377867   -1.08799116679427
C          -0.45349797928750   -4.82864968130203   -0.84479139996727
C          -1.24733307993698   -4.97650080662247    0.32478857617475
S          -1.55595917068913   -3.43529773906336    1.08001477898463
C          -1.69562800233688   -6.19796305631620    0.76953271406573
C          -1.34747503403751   -7.32630433328653    0.02218419432508
C          -0.55726582584851   -7.18365647898782   -1.15162182969930
C          -0.10857485835610   -5.95703079226308   -1.58846472420303
S          -0.26679559079927   -8.72315923454048   -1.91588553817942
C          -1.18644808342977   -9.54497203105424   -0.67273369359368
C          -1.68411719816188   -8.67410112812143    0.26630539569521
C          -1.35789921276002  -10.96357482743567   -0.69919284764382
C          -0.82378580862777  -11.75521658586689   -1.73585420607450
C          -0.98741164742816  -13.17958738213452   -1.78448160355164
N          -0.44994571301104  -13.86857548553508   -2.81331141614189
C           0.20213422743746  -13.24333376371548   -3.73531183066293
C           0.36560199370827  -11.83092065444965   -3.68619154191874
N          -0.13486211146726  -11.13827967560341   -2.71859095439690
F           1.03647859017491  -11.18840208079071   -4.63533732432718
F           0.71607029180295  -13.95530394976987   -4.73171292577845
C          -1.68919638061797  -13.89845744540240   -0.79659162771018
C          -2.22642881991207  -13.11430653876454    0.24935815946021
C          -2.06597083891904  -11.67531151809882    0.29594523296376
N          -2.65923255213317  -11.15442796971947    1.37286512453786
S          -3.33815798324053  -12.32517696032276    2.22753721118360
N          -2.92778343513385  -13.55981128582306    1.29469331686442
C          -1.83702067271083  -15.31899346895903   -0.86365071069288
C          -2.47588611276477  -16.12373941565123    0.04798661045609
C          -2.45575817832489  -17.49226096150431   -0.29361303165173
C          -1.77212143886710  -17.71953599218881   -1.52025809498624
S          -1.17364567001999  -16.23157917304156   -2.20277310807368
C          -1.62704962291376  -18.97965482438804   -2.05550251156488
C          -2.17215382983234  -20.05684164176766   -1.35563692470451
C          -2.85096490911280  -19.82516370825550   -0.12817395365171
C          -3.00229079147144  -18.56885093215385    0.41006617580922
S          -3.43466543817965  -21.31554360210383    0.56538314704690
C          -2.78121548631719  -22.22723300243661   -0.78371240269609
C          -2.14850139629251  -21.43045097733384   -1.69587200185339
C          -2.87251177662419  -23.65533699751693   -0.86443369852706
C          -3.48264223080061  -24.64622577975259   -0.10644908330931
C          -4.35916298688964  -24.63406381502567    1.08428098661988
O          -4.30276269892094  -25.48748314504753    1.92344208119856
O          -5.26624500128141  -23.64497528873878    1.16248374535337
C          -3.05738585381696  -25.84388669319682   -0.74304405230095
N          -2.30563695590321  -25.58853564442941   -1.77008417011156
O          -2.17518723570432  -24.24825204563781   -1.85384335310828
H          -0.51803301268083    2.01786533740773    0.42102943233289
H          -3.06223007579523   -1.61852042722302    0.37131552136556
H           0.48156401086805   -3.13765309772142   -1.91381577700240
H          -2.29552352710323   -6.29032025027599    1.66076639145350
H           0.49272156125011   -5.86430533456386   -2.47839082360914
H          -2.27370866329385   -9.00082627362440    1.10259747192370
H          -2.94220759357075  -15.73598168184788    0.93447458470603
H          -1.10684619370463  -19.13730592810890   -2.98646922360646
H          -3.52011892755645  -18.41219736898046    1.34270671422379
H          -1.68228028095453  -21.82061843174954   -2.58241721099596
H          -5.23686076780194  -23.02529742929747    0.42194058913254
H          -3.30415136157493  -26.84789526671042   -0.46585342625007
