121
 SCF done       -229.631142762660          0.000978553271
C          -0.83938893753119    2.03021586319099    3.78123963540138
C          -0.81991130273756    3.11771151529992    2.91836957983685
C          -0.01660598229141    3.11769636877783    1.78536409428028
C           0.76313163351187    2.00288064406540    1.53980059154801
C           0.74207477879452    0.90597437449318    2.40808734325643
C          -0.05721172214374    0.90944387002230    3.53622323777990
C           1.65862251652026   -0.15505457716030    1.92052489335576
O           1.85374702581550   -1.21735487229585    2.47553413369380
C           2.24295059257348    0.36740778367138    0.67155627900608
C           1.70096146297484    1.72819294541745    0.42790212017828
O           1.97699159146188    2.45829231457221   -0.49818348202246
C           3.12628290762845   -0.15175592365005   -0.22461938901029
C           3.78799835454912   -1.40056635923976   -0.26345419688615
C           3.73450695682617   -2.47172466234987    0.59346139564791
C           4.55362392398508   -3.55076071954473    0.21086040624985
C           4.70824439121807   -4.79144016612552    0.87416318483499
C           3.92088638966401   -5.15119077822590    2.03283870018972
C           4.31468692481137   -5.85353172431623    3.13932462122980
C           3.27130717525878   -6.07546083525975    4.05682191504824
C           2.07413298570556   -5.56702960418257    3.65171047522800
S           2.21996837150344   -4.77929704929568    2.11940252225111
C           0.76368458988524   -5.61118315805185    4.35105448745635
C           5.63864449807372   -5.66742442067825    0.33121067022826
C           6.35876010757845   -5.39465280347374   -0.86128681206200
C           6.17377424702121   -4.17534063608904   -1.55320910548893
C           5.28846832567274   -3.27227157403637   -0.97380329982066
S           4.89178779506964   -1.70057203651108   -1.60131804503129
C           6.84920022569784   -3.88280375501989   -2.79789429461718
C           7.36854659897774   -2.68764251497961   -3.21790317335424
C           7.94191594225658   -2.74865180620238   -4.50128162868545
C           7.84900418498211   -3.97846653173978   -5.08055228306168
S           7.05170794702959   -5.09952770149352   -4.03204123858559
C           8.33045961149769   -4.41600850449708   -6.41599005051332
C           7.22116519800264   -6.45310459832286   -1.20447434481960
C           7.16768623277857   -7.52030837458296   -0.34274409190300
S           6.05086868477991   -7.23581669896448    0.97386539815555
C           7.89003054758053   -8.75062654336582   -0.40701473969522
C           8.66235692066969   -9.17248337534327   -1.51496432725550
C           9.36153802718902  -10.43490022343211   -1.53258766013179
N          10.05054871701589  -10.78117647039993   -2.64114767641844
C          10.08203026014276   -9.98748375413576   -3.65966294134718
C           9.40978024108223   -8.74343862235058   -3.63599181113022
N           8.73330289097187   -8.37212312791060   -2.60050071117793
F           9.45096004495955   -7.90922120560565   -4.67808760034110
F          10.76690496567029  -10.38995055141254   -4.73336122748817
C           9.34899021442094  -11.32129356612082   -0.42905013638669
C           8.57547661296754  -10.89658812131661    0.67106568928984
C           7.84977666268543   -9.65344024976321    0.67487416141104
N           7.17645650759535   -9.47916096076393    1.81294687074492
S           7.42998854107206  -10.73739265816905    2.77603221121019
N           8.40325240908802  -11.57039081352411    1.80895947399730
C          10.03716558426118  -12.57114721992210   -0.37667229333512
C          10.77051245404621  -13.18591268886189   -1.36209670164462
C          11.30151635612012  -14.43500175564465   -0.99001206990064
C          12.10976209754931  -15.29655939776787   -1.76974115789988
C          12.43177866837629  -15.02239130992907   -3.15134205400845
C          13.59686722084235  -15.29725426610457   -3.81737751437085
C          13.56639557759990  -14.92880968690656   -5.17453834113365
C          12.37905234447875  -14.38608294077007   -5.56427045991160
S          11.26796057353403  -14.31184333834765   -4.24073460682982
C          11.98455386075448  -13.87500914430040   -6.90180245890467
C          12.56615735862710  -16.44703797736596   -1.13268030026632
C          12.25932702877646  -16.76712934712647    0.21756965691841
C          11.46782930918581  -15.89114974141418    0.99897824040726
C          10.98732545240448  -14.75851368918131    0.35628220488657
S           9.98979478794661  -13.52796349386044    1.08746100694101
C          11.19463368221532  -16.13951944819885    2.39665928103592
C          10.04500286128934  -15.88808949914571    3.09525215051831
C          10.14745428400533  -16.19810646408659    4.46386736812427
C          11.37486027745791  -16.66630661287150    4.82479082061224
S          12.43381117941786  -16.74987834128888    3.46046887482559
C          11.84779923570737  -17.09036411644089    6.16823547127567
C          12.75802385709754  -18.02902193857107    0.59219562871060
C          13.44648168684641  -18.67431552885360   -0.40500107853835
S          13.50380227312026  -17.70904983557126   -1.87516591707088
C          14.08256800518623  -19.93674222716915   -0.42235747460129
C          14.17891851457118  -20.90573152009270    0.52866033256970
C          14.92942484072227  -22.14545251013313    0.20540920110189
O          15.48180428753910  -22.40075024971149   -0.84176790385564
C          14.86518806780944  -22.99303624968174    1.41721396935037
C          15.40449559836044  -24.24420522927108    1.65127792984588
C          15.19063486627519  -24.82690368089077    2.89370881359488
C          14.45652682843777  -24.17221248720541    3.87358397730921
C          13.91437491551870  -22.91526319802851    3.64057255305364
C          14.12594057017995  -22.33259326125245    2.40469401967306
C          13.66214928180635  -21.01366992903277    1.90551409194047
O          12.99357655459199  -20.22284016599660    2.53971397750202
H          -1.47165787220153    2.05849861153663    4.65649883719788
H          -1.43815191967050    3.97667734355682    3.13371227039201
H           0.00613799708199    3.95918127460761    1.11009435621996
H          -0.06448564807350    0.05968117966819    4.20161440535220
H           3.35740310873040    0.51360549039222   -1.05366653829722
H           3.12663015734950   -2.45582184404619    1.47918943380259
H           5.32826514916696   -6.16799929763863    3.30871408812989
H           3.40381082073743   -6.59768185191939    4.98773283749107
H           0.85986416911123   -6.15030832500854    5.29057830208195
H           0.01408485818609   -6.10747792639975    3.73489269224041
H           0.40859835093787   -4.60175453896981    4.55728783218029
H           7.37985506223157   -1.80198807501519   -2.60885418400076
H           8.40985786851018   -1.90667898924910   -4.97973437196660
H           8.93995188804478   -3.63668959407473   -6.86720214429714
H           7.48960903750107   -4.62784607044816   -7.07714742612632
H           8.92122006512614   -5.32683464087338   -6.32845756012681
H           7.88059616433743   -6.44484813253913   -2.04914270123331
H          10.92089119389873  -12.72393910385679   -2.31713811370080
H          14.46669899687203  -15.71095973510068   -3.34049398374976
H          14.40019031523344  -15.05988064120623   -5.84108597720606
H          12.80725913509287  -13.99082472004454   -7.60317700028726
H          11.71675326834470  -12.82018682402729   -6.84116985681334
H          11.11827750212663  -14.41663986225778   -7.28145155688557
H           9.14255667784394  -15.52789107410710    2.63623656850237
H           9.33655902909381  -16.07610250202810    5.15992568538056
H          11.05990118698517  -16.94718999336492    6.90402158677068
H          12.72158812987959  -16.51293083255674    6.46979010940468
H          12.13304873231099  -18.14220254376906    6.15610027621179
H          12.60552630639811  -18.48008423704721    1.55523433169990
H          14.57919289225558  -20.18500096124085   -1.35788790381499
H          15.97251294100866  -24.74589639633459    0.88298127067993
H          15.60049440855930  -25.80418809882795    3.10203042765160
H          14.30484638571493  -24.64944440694616    4.83059295085107
H          13.34097550797413  -22.39948723940878    4.39565199420406
