82
 SCF done       -146.362656177796          0.000387103287
C           4.99247369572262    5.62340365694306    0.39764197224318
O           3.93333235967816    4.72596230712416    0.16864634293979
C           4.03022594639910    3.85103098691811   -0.85841187988897
C           5.18141186327043    3.64655382352700   -1.60960322768303
C           5.25426481535329    2.66895596682139   -2.59222704954463
C           6.48450592745177    2.53172277555153   -3.38768882439544
C           6.40578303888135    2.46900637684287   -4.78872797110472
C           7.52355875606086    2.37433767868827   -5.58554440916573
C           8.76053431683663    2.33003153219070   -4.95127313789554
N          10.03388809020646    2.23138882796330   -5.43638926561841
C          10.80410817380553    2.22361147668840   -4.38488008628000
C          12.24155066786868    2.12275125363159   -4.44413606680344
C          12.82895813178766    2.12695217943690   -5.71018476048739
C          14.19749592430347    2.02042335692589   -5.87593506730444
O          14.81380254939237    2.02475076971706   -7.08079839124177
C          14.03184410039135    2.16096161808961   -8.24507445461278
C          15.02371221213457    1.89077045715651   -4.72455955287989
C          16.43469990457294    1.76082575562761   -4.92513022433226
C          17.49003754058439    1.55638487378636   -4.09149307371930
C          18.83899437751250    1.44678357451015   -4.71235302499154
O          19.09918827875154    1.54986534632422   -5.89029473585859
C          19.78764446657269    1.18346660465417   -3.60794782597330
C          21.15555239528159    0.98643363884619   -3.64201050239091
C          21.81213464097896    0.74934815163835   -2.44143736595607
C          21.11570351947375    0.71174681950368   -1.24080682048176
C          19.74192154888559    0.91010740203065   -1.20451443206496
C          19.08583512670437    1.14537871058820   -2.39896011262993
C          17.64035976957468    1.38366625722938   -2.63399547443581
O          16.79700612154041    1.42146669743166   -1.75848766360035
C          14.42184225923424    1.89345890008624   -3.46255796895553
C          13.05184777883945    2.01051215909435   -3.29458706191926
O          12.43372786314323    2.01579249927528   -2.09221271076057
C          13.22009786274571    1.87629043215826   -0.92939620427447
O          10.14503446682814    2.31470215750787   -3.20229747922165
C           8.83723837757182    2.38571982640822   -3.54164709584529
C           7.71670397340729    2.49601267474085   -2.74388601622691
C           4.15563087436426    1.81332484865566   -2.79867482082560
O           4.31516182880333    0.82539814596804   -3.72485408106711
C           3.27049507083666   -0.09693694373186   -3.91190729219548
C           3.01128601621305    2.00284896525055   -2.04567950677113
C           2.90621702091156    3.04284818997242   -1.11735553489798
C           1.64135103625836    3.23719366742667   -0.45062090087279
C           1.02493976450026    4.40715030237289   -0.17771577153410
C          -0.24955936481051    4.45570567814216    0.57809556769045
O          -0.87036367346503    3.51189670214496    1.01510613053696
C          -0.59844492517911    5.89117375643336    0.68960935665794
C          -1.66449778310652    6.49042417123415    1.33544321582269
C          -1.76666308741051    7.87426087728831    1.28679055663183
C          -0.82703054172105    8.63635867959999    0.60543273981715
C           0.24151474537479    8.03690524338542   -0.04792759490450
C           0.35020666622544    6.65937893921516    0.00373577939937
C           1.37906331623322    5.77823145828449   -0.60614534687251
O           2.26329684747782    6.12726063071444   -1.35603948529425
H           4.66491967617573    6.25780386871942    1.21991414786111
H           5.18237827909150    6.24301440080237   -0.48295476996808
H           5.90923703505480    5.09966577936822    0.68866865357113
H           6.04515648406149    4.27545767497780   -1.46519888168396
H           5.43037910393763    2.51218828845476   -5.24644828263825
H           7.45520692849892    2.33540567302056   -6.66030619100097
H          12.15672716154293    2.21482534197605   -6.54694054622447
H          14.73980220212074    2.14787820117311   -9.07214604512927
H          13.48278721396665    3.10698224950886   -8.24972988242464
H          13.32803135704132    1.33088743230227   -8.35419733956173
H          16.72857745300949    1.82470954217047   -5.97035289102472
H          21.68799155952325    1.01707621752665   -4.58021221949926
H          22.88059379529343    0.59123793979870   -2.43998771939232
H          21.65205261457915    0.52503702679811   -0.32205890419797
H          19.19211937626955    0.88217542867251   -0.27611013033110
H          15.06512214017632    1.79656394772145   -2.60537330365337
H          12.51490688184564    1.89194367379251   -0.10005572387902
H          13.92911303990241    2.70187935708377   -0.82171807601823
H          13.76900228476910    0.93063921299293   -0.92552874712255
H           7.79407434985499    2.52655734259825   -1.66885513155729
H           3.63379239212475   -0.80003786166361   -4.65983680341432
H           2.36317257162746    0.38970621443539   -4.28493737203528
H           3.03988319234321   -0.63856747454941   -2.98889134066899
H           2.14419644379136    1.37854810732857   -2.19401382885474
H           1.09789989537745    2.33797575621420   -0.17244456943653
H          -2.39216775842184    5.88942806034520    1.85906862311371
H          -2.59005653595790    8.36645112364308    1.78314844260711
H          -0.93117863527049    9.71129056592097    0.58317969586153
H           0.97506484443897    8.62154607082711   -0.58202225127883
