78
 SCF done       -162.983693749209          0.000519039329
C          -1.94536791412515    2.30307334407545    0.24685609296792
C          -2.48065295626833    2.38838305495865    1.52554359335516
C          -1.99632470790836    1.59696958165324    2.55889879876963
C          -0.96435849823995    0.72015966401291    2.27881899521127
C          -0.42444248543461    0.63488902375238    0.98942719551163
C          -0.90892682467046    1.42383449581856   -0.03768373834460
C           0.66271997287183   -0.37220022481718    0.95203400252393
O           1.31714001122322   -0.67294983830166   -0.02349811562754
C           0.75446687148960   -0.90782710811563    2.32516989869584
C          -0.26407052420288   -0.23019617308123    3.16919402787424
O          -0.46538793079099   -0.42905942825041    4.34646699005365
C           1.55202767242049   -1.85426282457978    2.88745989325462
C           2.58856046790856   -2.64122426372629    2.33765729543801
C           3.14278019102904   -2.67510056064557    1.06627598413421
C           4.16120824389065   -3.61679935007014    0.96495248392805
C           4.38861862430009   -4.31535611296551    2.17043425269989
S           3.35745946619943   -3.80697697865111    3.42107566375207
C           5.43049253723924   -5.25125971155833    1.96101413021014
C           5.86566908558566   -5.14972907597326    0.62650848911563
C           5.08730542717228   -4.11406997893394   -0.04083153686573
C           5.21925942502349   -3.69918500221674   -1.33160382518608
C           6.16858964397150   -4.26986094032355   -2.20836295509563
N           6.93731995453278   -4.72045131590732   -2.92949284784406
C           4.43829163611711   -2.67012291647495   -1.90425097191871
N           3.83423291629905   -1.83651863776729   -2.40717823138174
C           6.89378444720382   -6.03929770385185    0.32498549249912
C           7.23912856535695   -6.81053757624152    1.42310062779409
S           6.28681097568308   -6.43665355016927    2.84231708392313
C           8.24494503429042   -7.80624339586485    1.45585183591136
N           8.96073846698525   -8.13421260794012    0.41992890704815
C           9.83184371051943   -9.09104329771714    0.72988547093516
C           9.81828226747889   -9.54822193659050    2.06101189571282
S           8.62033718665470   -8.70291325659197    2.95336000946666
N          10.69220892929526  -10.50291790592092    2.37081093191212
C          11.40628617891015  -10.82944514144417    1.33249676759350
S          11.02895200817807   -9.93767402308201   -0.16501783262136
C          12.42127927124401  -11.81344508022595    1.35436691805078
C          13.21574870064286  -12.23913849263139    0.30446368530871
C          14.11237799817144  -13.22577375447062    0.70843530994746
C          13.99162657853605  -13.54382955242148    2.07429453771071
S          12.77662918324572  -12.63493323285902    2.85888585681469
C          14.94405194972327  -14.54549315576735    2.38743653565194
C          15.66961913108292  -14.86207128210808    1.21865062971217
C          15.16354647855170  -14.04762265861787    0.12462545308977
C          15.56752875892421  -14.04998261940499   -1.17666782949058
C          16.58662211170889  -14.89030388935856   -1.67804296321759
N          17.40095416748196  -15.55793164802213   -2.12961389716332
C          14.97784157124040  -13.20122260226636   -2.13929115062581
N          14.50284768565962  -12.51417713593366   -2.92448863505644
C          16.64284687526730  -15.83313640309474    1.42801397335953
C          16.66986910952735  -16.26786095944405    2.74526283903037
S          15.45523205219829  -15.44716557758479    3.73293974915032
C          17.47830920125864  -17.22410304058557    3.39954705858435
C          18.50508486375191  -17.98896659226857    2.94250479168653
C          19.17825677231169  -18.92558058629593    3.87981889638246
O          18.89826002249019  -19.09651536176328    5.04533163084913
C          20.24298758559191  -19.58985902226540    3.09778193951032
C          21.16133997834256  -20.54650255954637    3.48975393089437
C          22.06820672538365  -21.00843476703116    2.54479655818015
C          22.05487822369061  -20.52468354594611    1.24301363776161
C          21.13392387652510  -19.56420920185873    0.84612013210787
C          20.22955785743490  -19.10269739150824    1.78487365294953
C          19.15714258380951  -18.09229730366678    1.62157322277400
O          18.89975776207947  -17.49082966430763    0.60057085046213
H          -2.34219959003167    2.93078310374194   -0.53721125128264
H          -3.28636321419660    3.08128168774560    1.71806985765088
H          -2.40658153079949    1.65653046324026    3.55526857919524
H          -0.48530737668052    1.34936927226909   -1.02744879626587
H           1.35230535732328   -2.03337579457871    3.94188183543245
H           2.79608595985583   -2.03396150928241    0.27386455172473
H           7.38617897731977   -6.14781242038197   -0.62341214805204
H          13.12957952559474  -11.83920954192230   -0.68975117341163
H          17.31548061297482  -16.22240790195903    0.68288026604317
H          17.24543487282397  -17.37657227822050    4.45133079525054
H          21.16483759669421  -20.91665093988811    4.50345121632224
H          22.79587964763549  -21.75542826918871    2.82555519234283
H          22.77234460301465  -20.90210955018577    0.52955360628545
H          21.11440940658320  -19.18124756653982   -0.16263660091519
