119
 SCF done       -230.641187100955          0.000807433087
C           1.12490858768811    0.37063046608687    0.93721197459059
C           0.25506288395751   -0.42342172507510   -0.02182747181278
C           0.28795467704770   -0.24126619594058   -1.39819613271126
C          -0.49243889376102   -1.03277720906727   -2.22375924639812
C          -1.31155174453289   -2.01115721320171   -1.68985596834618
C          -1.34841753868568   -2.19829016436599   -0.31830593031585
C          -0.56871522554574   -1.41202468858963    0.50786314577328
C           1.84402852856279    1.54955810309649    0.32208189608262
C           1.09037182749894    2.50582691326701   -0.35385551327356
C           1.69986585742537    3.61213781208146   -0.91254738593962
C           3.06846824737953    3.78775351627957   -0.78924466984495
C           3.81701661149298    2.86020290351559   -0.08832391359685
C           3.20976768651982    1.74888606641496    0.47217333896267
C           2.01766571237450   -0.59346128186604    1.68431364228151
C           1.86510493251730   -0.58036425390176    3.04960426737660
C           0.86129921961049    0.31999812493422    3.55050527748315
C           0.53127433104199    0.54933856651245    4.86156596746250
C           1.15355676451992   -0.05588229389305    5.96873228269359
N           1.61148509514276   -0.50240241830822    6.92144392655801
C          -0.49992851889365    1.45467222451040    5.18487467556339
N          -1.34289039241927    2.18979677495671    5.43981078928438
S           0.03085745465779    1.12598086343718    2.25383910302222
C           2.63103813619117   -1.37430054227491    3.92394845196321
N           3.27981312259487   -2.02989440290806    4.60639848432944
C           2.86763094197823   -1.44612698356215    0.93330776525428
C           3.15671264913654   -1.32139682885483   -0.42065400487635
C           3.98052699723030   -2.33643215469378   -0.87990171820738
C           4.32821086235319   -3.26304647316825    0.12743623857987
S           3.65126992986851   -2.86352933755977    1.63833493543298
C           5.15735332210995   -4.25718082742792   -0.44215696506089
C           5.33753913080457   -3.95435404105042   -1.81011676055552
C           4.60051486734304   -2.74270149609841   -2.12803917039173
C           4.49219106800267   -2.12153685563216   -3.33804780305760
C           5.13835715779493   -2.60582120154392   -4.49506875673510
N           5.66062362256051   -2.99431226482468   -5.43886924813816
C           3.71420902593849   -0.95609388829507   -3.50157370825336
N           3.07703826338865   -0.01078715136538   -3.62840180462897
C           6.13497891096372   -4.87828859715289   -2.46800449648165
C           6.56432206046320   -5.89388192392992   -1.62052221012498
S           5.96551326091935   -5.68980402666674    0.02006527343404
C           7.37193026855166   -7.01768138175344   -1.94163070327610
C           7.94360833679479   -7.25116831754147   -3.22150199008346
C           8.71614622839375   -8.42948255695887   -3.48011745865624
N           9.24443904709633   -8.63048232891130   -4.70055888063952
C           9.05041051245353   -7.74767990813558   -5.63907008188537
C           8.29490369058619   -6.58555812648645   -5.38286509947269
N           7.76591927966302   -6.35708022793422   -4.21356809562911
C           8.95907460790163   -9.43247764329638   -2.50950822967968
C           8.41334870707546   -9.18986814050233   -1.23209686337473
C           7.64290788726868   -8.00067661136537   -0.96643544302490
N           7.21795192751158   -7.96283582485560    0.29869844148120
S           7.73073975800804   -9.27308561397184    1.07077436364177
N           8.51172398599980   -9.95958788615586   -0.14540900035501
C           9.69262287551249  -10.59776889070534   -2.84509477143372
C           9.95363385108111  -11.68542656378971   -2.01823404940442
C          10.67577641277241  -12.67110751611293   -2.67494192777825
C          10.97785346939058  -12.32628210588410   -4.01103977404728
S          10.35626647220015  -10.79236155872274   -4.45578521377793
C          11.69910331865475  -13.39489169856841   -4.58980021953276
C          11.84595496529109  -14.41872151288109   -3.62800480890165
C          11.21241545662267  -13.99222053715777   -2.39184553631620
C          11.13982898256484  -14.69163994423787   -1.22277766252620
C          11.71101282701231  -15.97486586492970   -1.09120426897170
N          12.17749121970408  -17.01781803593815   -0.99087040709799
C          10.49275317485475  -14.18108969758364   -0.07750164349353
N           9.96623662650056  -13.77430370976699    0.85619969076424
C          12.52559078278037  -15.52332371504031   -4.11433014354054
C          12.91811506811234  -15.36423346217541   -5.44076487948198
S          12.41211655907170  -13.79626427287037   -6.08201353647158
C          13.62802546305232  -16.30976583471128   -6.22348051598567
C          14.00202441036735  -16.16739688219899   -7.53963601106193
C          14.77852908447055  -17.24801903791463   -8.08457648882831
C          15.26033794725072  -17.36385144144022   -9.36366270843003
C          15.05713664284143  -16.42883682998913  -10.39487637169334
N          14.93560248817545  -15.71880013791786  -11.28825956448568
C          16.02338277946374  -18.49060861792611   -9.73209593178274
N          16.64571054550114  -19.40981816067958  -10.02220219614095
S          15.09413568145720  -18.46635567913341   -6.88809107916352
C          14.06234693451308  -17.60807257429896   -5.58242012312244
C          12.92771482047265  -18.56823240093177   -5.29796712991826
C          13.24764364124640  -19.84309691314199   -4.83584971221384
C          12.25525331427135  -20.76846501248974   -4.57958377585159
C          10.92676850666797  -20.43938785678814   -4.79468579643103
C          10.60422201891733  -19.18687605104719   -5.28264931240022
C          11.59735397561109  -18.25607369181066   -5.54049987921861
C          14.96479095149164  -17.31933300178251   -4.39558365048585
C          16.08983984655347  -16.52802249782253   -4.60618380236987
C          16.93522704533529  -16.21297810869568   -3.55975107366774
C          16.66540183477145  -16.68165500848094   -2.28484465746886
C          15.54694972142187  -17.46580436619400   -2.06715539762803
C          14.69984698974531  -17.78587460331376   -3.11429308421713
C          13.68197545309606  -15.04804453731528   -8.32992944616377
N          13.40712442289013  -14.12181316677988   -8.94953302676093
H           0.91949531425112    0.51238283833501   -1.84377385968328
H          -0.45248081456834   -0.87750247043549   -3.29111021837076
H          -1.91960210722211   -2.62441201926632   -2.33740478299688
H          -1.98435653266137   -2.95733365714356    0.11147889187764
H          -0.60795523552670   -1.56461967007612    1.57750460003080
H           0.01970003266877    2.38043136407442   -0.43044348864464
H           1.10342296712518    4.34051076292763   -1.44017454853869
H           3.54617495456393    4.65077100071477   -1.22690280518760
H           4.88096852366007    2.99867968151758    0.03129847109404
H           3.81077811958905    1.04304210721065    1.02646267181094
H           2.79987428026950   -0.51175199477131   -1.02650243497236
H           6.41172303278689   -4.85236980051732   -3.50541565323444
H           9.49253301386021   -7.94946113672586   -6.60388442038260
H           8.12346604529752   -5.83703604643677   -6.14349168179226
H           9.61380120574973  -11.72108176859066   -0.99937102234485
H          12.72337238684410  -16.41003157917165   -3.54421427973056
H          14.28503207213689  -20.10851145113585   -4.68876753649728
H          12.52097520122496  -21.74981722757906   -4.21758957243300
H          10.14943189944993  -21.16090382768427   -4.59508594101723
H           9.57382464988624  -18.92655043615476   -5.47291749432934
H          11.31872144492600  -17.29099359811438   -5.93577397628657
H          16.31230834226022  -16.16078121984252   -5.59854316262887
H          17.80553719592720  -15.60104342688003   -3.74260466405835
H          17.32522446937654  -16.43676966320817   -1.46647150303745
H          15.32035767639860  -17.83280831927706   -1.07820129506357
H          13.83019160797214  -18.39365826852083   -2.91521992132679
