119
 SCF done       -239.084798911495          0.000502052800
C           3.96210186072904    2.62890931357986   -2.27095483978519
C           4.93451286052580    2.52176535489359   -3.42827466248853
C           6.24145094805831    2.11908496724324   -3.16722155174949
C           7.13709281582508    1.94481631623985   -4.20596066404896
C           6.73714412037224    2.15849963797056   -5.51426497969182
C           5.43550404971467    2.54547087425734   -5.77837582812270
C           4.53519504534833    2.72045365328186   -4.74171431440295
C           4.57181294155631    3.24542324002555   -1.02960281967041
C           5.49561367157757    4.27705807054170   -1.15163327692759
C           6.02416507108165    4.87298196834297   -0.02139710962546
C           5.63189689708459    4.45219959861139    1.23843733142591
C           4.68883629010097    3.44722074766695    1.36430582819515
C           4.15134378936170    2.85475064447471    0.23566611937297
C           3.38747500766178    1.25984307663939   -2.03329127742279
C           2.04087330673277    1.15600171101019   -2.13136950983452
C           1.34875205210506    2.38793569915096   -2.44032953740715
C          -0.00246584908551    2.55401708131521   -2.55653009751175
C          -0.93790984902920    1.51798659830781   -2.36344398967772
N          -1.74243896797077    0.71499547506357   -2.21221662256666
C          -0.55107776857298    3.81238311987796   -2.88264678243528
N          -0.98916770641204    4.83672306734339   -3.15317000647953
S           2.48023262012738    3.68846054156596   -2.67094725554088
C           1.40003929184988   -0.09196954882005   -1.95490853132399
N           0.98076790031219   -1.14658461909904   -1.80348707430985
C           4.25255427133045    0.11744823517604   -1.77262988675310
C           4.57362436121997   -0.44018052815437   -0.56563366878297
C           5.38046546397058   -1.57789400818433   -0.71728334335001
C           5.65461673425696   -1.87538610229129   -2.05882281567674
S           4.93600079802906   -0.76018128667961   -3.13207051689744
C           6.43884232143858   -3.05945697438768   -2.11626435697081
C           6.64332171036332   -3.51006513672074   -0.79719311558095
C           6.00543239199169   -2.58106613429370    0.12457099553694
C           6.01671623778886   -2.62485308906313    1.48786098501102
C           6.66556847803077   -3.65365372679080    2.20325651345707
N           7.19383760608204   -4.48436280444197    2.79070184728338
C           5.40044187285465   -1.62188191456383    2.26587289457782
N           4.91594575870984   -0.79273807367988    2.89241471368089
C           7.37617746497746   -4.68740191814393   -0.73905445630272
C           7.74562232540025   -5.13261915404659   -2.00271527232756
S           7.18195329643120   -4.06502230274320   -3.27724061222520
C           8.47946784234634   -6.31009238582986   -2.30722388192302
C           8.90216581342531   -6.60331754538813   -3.62231277319276
C           9.64528641618078   -7.78484897805344   -3.94738638057692
N          10.02861878970673   -7.99216630698602   -5.22378307685720
C           9.72007758915992   -7.12825838221799   -6.13530787450416
C           8.98143420991978   -5.95794648612236   -5.81257646062360
N           8.59909351787568   -5.72542557901600   -4.59924618624069
F           8.66597023269320   -5.06768352387590   -6.74634420963552
F          10.11427389174888   -7.36589044045695   -7.37967071680028
C           9.98614422770197   -8.75622983319207   -2.98245544114911
C           9.56092643569226   -8.47459543382289   -1.66252181638745
C           8.83233911333230   -7.27093931710286   -1.33006817440539
N           8.54732395632000   -7.21935004534951   -0.02743700249180
S           9.12475054816277   -8.52220106339353    0.70073795815815
N           9.76872469413289   -9.23074426100247   -0.58287076027039
C          10.70683018211967   -9.93206731777085   -3.32832585915085
C          10.99133338610016  -11.00452137739679   -2.49089583348564
C          11.72136393288680  -11.99005991531686   -3.14008006464570
C          12.01179566006778  -11.66055357261594   -4.48212869281917
S          11.35088184619411  -10.15361163819425   -4.94431953390785
C          12.77288976133259  -12.71373937048447   -5.04222200701296
C          12.94674147921755  -13.71532807855545   -4.06240615110105
C          12.29338640355525  -13.29076531461252   -2.83601373442049
C          12.24204247699604  -13.96991456273059   -1.65405177942278
C          12.84965916355609  -15.23330307385083   -1.49684512685364
N          13.34711376082043  -16.25869856848159   -1.36955566686378
C          11.58395574197748  -13.45438641120969   -0.51704960669264
N          11.05073066369795  -13.04243350493738    0.41043920319030
C          13.68886829420175  -14.79336033454595   -4.51663620448391
C          14.11196644149119  -14.62970963900065   -5.83257682294605
S          13.53814450533167  -13.10212848734575   -6.51221929064736
C          14.92489292916971  -15.53131232162247   -6.56704597461958
C          15.34254083865493  -15.38310142329307   -7.86875071843054
C          16.24726519719823  -16.39273963653699   -8.34900023481141
C          16.80644886669828  -16.48347414501665   -9.59807999941976
C          16.57018564146231  -15.59169452980086  -10.66020163758467
N          16.43120828126942  -14.91244605936536  -11.57448236686873
C          17.69836541129611  -17.53330503171868   -9.89842860110550
N          18.42510485048447  -18.38896094133091  -10.13479709903330
S          16.62084887999810  -17.54872974977750   -7.10822471030052
C          15.44197011431815  -16.77359866389466   -5.87751683805055
C          14.38396373015854  -17.82959023491529   -5.64047234308887
C          14.79117228349003  -19.06916069498676   -5.15186949618877
C          13.87246034789541  -20.07791163764557   -4.93914227833324
C          12.53308025748867  -19.86886101747593   -5.22531465905651
C          12.12633945798698  -18.65103442799155   -5.73765523059115
C          13.04515607045150  -17.63634752440568   -5.95084491238055
C          16.24501561536103  -16.38928330470778   -4.64749880174489
C          17.29443617157616  -15.48933871015981   -4.80570680275261
C          18.04199075698475  -15.08122555755341   -3.71775457214788
C          17.74845413143048  -15.56471451045943   -2.45361761078961
C          16.70613980110136  -16.45888412283707   -2.28846088143091
C          15.95765540257650  -16.87229640269710   -3.37714191125900
C          14.94808960408178  -14.32032479235670   -8.70270497051947
N          14.60580719780445  -13.44464320161841   -9.36067579055494
H           6.55736232223802    1.94614954410090   -2.14820179284623
H           8.14906774218733    1.63768434478081   -3.98971777174654
H           7.43717751120869    2.02169369093399   -6.32397302115016
H           5.11295605474782    2.71139215731951   -6.79472330003489
H           3.52279606535772    3.02421828848385   -4.96255064330362
H           5.79724658120648    4.61482168858268   -2.13221097233570
H           6.74213584364718    5.67191264648797   -0.12811696357957
H           6.05032618991128    4.91513710626442    2.11888518011813
H           4.36407604067066    3.12249038659527    2.34077105718314
H           3.39305225622560    2.09302030568697    0.34475409054440
H           4.24282426167684   -0.05157752884525    0.37956849833383
H           7.64098847878777   -5.22242988673139    0.15404347194844
H          10.66739269221646  -11.03041466473890   -1.46696811992470
H          13.91297803920384  -15.66200767492565   -3.92878679996805
H          15.83901809341812  -19.24098119155359   -4.94983818101938
H          14.20479405762790  -21.03053633096012   -4.55601945352911
H          11.81357621345922  -20.65632372193967   -5.06137115813212
H          11.08818241422713  -18.48376763927287   -5.98225227519966
H          12.70313046447748  -16.70003604777602   -6.36516454113006
H          17.53429620715501  -15.10893436367126   -5.78904191179425
H          18.85435161805429  -14.38457116199763   -3.85959878905914
H          18.33096896424482  -15.24587994553933   -1.60266800466672
H          16.46168255574640  -16.83930567845831   -1.30890186418239
H          15.14416502352543  -17.56406660214591   -3.21933277809412
