121
 SCF done       -237.145838854745          0.000720258078
C           2.00964060274530   -1.92411238225883    4.32978066277213
C           3.11374563183963   -0.94003592945693    4.64889446371539
C           3.77420564307767   -0.19935599444715    3.67933174094000
C           4.76152211097608    0.70256137998393    4.04218758607778
C           5.09105738303025    0.88378990112273    5.37228735545167
C           4.41785839045729    0.16598312489330    6.34787385715947
C           3.43440772304705   -0.73437027063906    5.98930115416828
C           2.27786712881928   -3.33745222134768    4.81758083253322
C           3.50221032109841   -3.72387869709512    5.34922354824305
C           3.69905564222583   -5.02951189347608    5.76476083277225
C           2.68282390164880   -5.96129665137341    5.65313133351048
C           1.46236281880100   -5.58374159683147    5.11827456399445
C           1.26182165719526   -4.28166445481705    4.70256601031440
C           1.61070359875675   -1.96298502401037    2.87774861821377
C           0.32910970193850   -1.55171680625330    2.61529588816248
C          -0.42471775599130   -1.11206584929352    3.76056801904455
C          -1.70665974797981   -0.62851161316743    3.77277552874120
C          -2.50963903668939   -0.44366671423363    2.63144864167465
N          -3.21977472268198   -0.25642570969795    1.75031065898686
C          -2.31341652953770   -0.25954348491976    4.99115877979955
N          -2.80069549694616    0.03289639082997    5.98755423080703
S           0.49818384537016   -1.27742229277527    5.22380844284395
C          -0.27568297745331   -1.66076470866738    1.34622323222524
N          -0.75281962052704   -1.82083638245452    0.31618481332535
C           2.53076424617502   -2.41984689288136    1.88941372440004
C           2.54300901047957   -2.08651054580385    0.54221089983738
C           3.60307554044054   -2.68050317624211   -0.13396639318863
C           4.39545079223600   -3.49677367376652    0.69824991489810
S           3.86264336874970   -3.49322517572218    2.31576754326200
C           5.42102978161397   -4.08430846067968   -0.07870871644206
C           5.28859919373030   -3.62204759127916   -1.40633970929349
C           4.15046827737998   -2.71702098846823   -1.48013625671301
C           3.71409811992863   -2.03064717562583   -2.57331746197250
C           4.34380992664728   -2.15940370237080   -3.83030403039662
N           4.85955483141708   -2.26851107201039   -4.84798378682155
C           2.63267649554495   -1.12365258155242   -2.51747629076921
N           1.77648566617856   -0.36362515751012   -2.47345081590957
C           6.25848389840130   -4.13943192422202   -2.25358645033479
C           7.11431114070871   -5.00331654148732   -1.57969413219213
S           6.72199928041704   -5.17388232002514    0.12445736856288
C           8.19906856091990   -5.72949362802490   -2.09790847125758
C           8.95624462770718   -6.66331607768655   -1.38127448039985
C           9.98745523132581   -7.27371896503047   -2.16859841080351
N          10.80051081236546   -8.19433976845268   -1.65318718710152
C          10.61013321364313   -8.51473527017256   -0.39012808716278
C          11.51191858150406   -9.54329305649042    0.18549962483215
O          12.38909357073522  -10.07759720849398   -0.46036468090130
C          11.25988973383214   -9.87155596332114    1.59885880000976
C          10.29910424951603   -9.30132134326254    2.33365234096067
C           9.37655557875792   -8.27503194332762    1.81931685964046
O           8.51642544773573   -7.76869269291981    2.50910435543798
C           9.57973737690308   -7.90507415810306    0.39646014643143
N           8.77167552098568   -6.99361531800843   -0.10403273456914
C          10.03082019111823   -6.79480084922800   -3.48304338641951
S           8.78429533091991   -5.60844566492439   -3.73069868341592
C          10.95385585432305   -7.20430880778016   -4.45914256344279
C          11.11331820719571   -6.71476766027506   -5.75055385465543
C          12.14820295591870   -7.35926093319719   -6.41379368996014
C          12.76645609128222   -8.35363866142804   -5.62465041138605
S          12.09118984337528   -8.48286475172190   -4.06002129909706
C          13.79737163690261   -8.94764920083952   -6.38973298787498
C          13.84707716112561   -8.32241386559878   -7.65175906205744
C          12.79648952015993   -7.31988779802692   -7.71679985666125
C          12.46204500712057   -6.53619461979874   -8.77988435948208
C          13.11317921096174   -6.63716715206617  -10.02921832085112
N          13.61223349563432   -6.73805426866358  -11.05548188858368
C          11.41004627841474   -5.59736948942577   -8.70838309191553
N          10.55528456297306   -4.83650544433880   -8.64262848618981
C          14.86394577618126   -8.81793451980793   -8.46074956382768
C          15.57545791626650   -9.83509122803740   -7.84050784584812
S          14.96556488258163  -10.17574197445619   -6.22262896693739
C          16.65668075090110  -10.58264403350793   -8.39350159922981
C          17.50523296150181  -10.11525453450170   -9.36355348142401
C          18.51706369173508  -11.04315667828770   -9.79784754441718
C          19.46214605036488  -10.84267531868167  -10.76936502672182
C          19.57893175099292   -9.67736330844546  -11.55044086073570
N          19.72976421564650   -8.76671285711045  -12.23153562807709
C          20.40338849027762  -11.85137260841076  -11.06136703338152
N          21.16774166862482  -12.67640036228179  -11.28685215210885
S          18.43052330212331  -12.53231814270724   -8.90614225596708
C          16.94141451381865  -11.98205195628396   -7.91455055093737
C          15.85575794373907  -12.98312014941311   -8.24439265184791
C          16.09795204186840  -14.32524258454664   -7.95887870469518
C          15.15916841773887  -15.29036041915424   -8.26517158522359
C          13.96660561747574  -14.93120154727630   -8.87254808596581
C          13.72933667905534  -13.60449183249056   -9.17921199903845
C          14.66936865417193  -12.63366137897679   -8.87310528896370
C          17.33428020309916  -11.94849492665074   -6.44828380647336
C          18.43574171386263  -11.18435756532262   -6.07462827988565
C          18.82377000892837  -11.11153060074320   -4.75076688398954
C          18.11381493669200  -11.79917744853034   -3.78066966985636
C          17.01328982523190  -12.55424792684006   -4.14392117598380
C          16.62154761160626  -12.63029547245748   -5.46940039990656
C          17.49116492320127   -8.78375208189991   -9.82762163371586
N          17.48403644770317   -7.67904174592266  -10.13406084046300
H           3.52628156885410   -0.30735276879803    2.63425583760116
H           5.26693945867996    1.26925629911556    3.27474445300330
H           5.85933166601597    1.58896841680955    5.65001278393049
H           4.65403258958233    0.31181048986950    7.39083142618894
H           2.89803591759593   -1.28161053258844    6.75166392416178
H           4.30980356578464   -3.01276150958213    5.43029525052200
H           4.65532521157555   -5.31533597065895    6.17537931440248
H           2.84015010087983   -6.97769597714666    5.97979753840732
H           0.66259746015313   -6.30241197682327    5.02468468052806
H           0.30331865091027   -3.99670723098857    4.29158930667667
H           1.82942685000373   -1.42070868777142    0.09244682240949
H           6.35710975529457   -3.92629294019887   -3.30289778231892
H          11.91666377830792  -10.62222232324352    2.01737434353182
H          10.14872436435314   -9.57223488364330    3.36999956802373
H          10.50045714063627   -5.92817842917997   -6.15290201958165
H          15.06482517052837   -8.48301773664511   -9.46192520742455
H          17.03594903560331  -14.60824448889172   -7.50250632155630
H          15.36272851916416  -16.32519598931087   -8.03627957192884
H          13.23288901580930  -15.68423678826931   -9.11612083619223
H          12.81150166850855  -13.31516638773999   -9.66838555171142
H          14.46442437331072  -11.60784236430509   -9.13942716049468
H          19.00022694099494  -10.64793719469516   -6.82448368839395
H          19.68298569576797  -10.51775798896910   -4.47889138135709
H          18.41722012504892  -11.74477259555302   -2.74648893719233
H          16.45016951028173  -13.08868873064366   -3.39431807309865
H          15.75281323477561  -13.21284908712278   -5.73469753839176
