125
 SCF done       -229.462631302843          0.000697210663
C           2.64491227424695    1.37903078643212   -2.93052517742448
C           1.43758424389136    0.47492712609531   -2.81097144117306
C           1.24358291415291   -0.38698001277413   -1.74077641430859
C           0.10035651921142   -1.16631880238459   -1.67015525226152
C          -0.86531194197643   -1.08541419438681   -2.65594116381417
C          -0.69196164255497   -0.20585017125048   -3.71244269350045
C           0.44650645935913    0.57214260143788   -3.78553303945696
C           3.42741820047442    1.22578358497195   -4.22233348864369
C           3.14848863908873    0.23928532285022   -5.15979464878609
C           3.90354102814016    0.14448205723865   -6.31602536907990
C           4.94288515128137    1.02697888138434   -6.54942403772455
C           5.23064221929840    2.00819687742597   -5.61550526099774
C           4.47865004948463    2.10614223094557   -4.46079193341105
C           3.58367983479199    1.30553484142917   -1.75108326832493
C           3.62833774562170    2.45149187935960   -0.98537434610632
C           2.78570439076149    3.52702284979948   -1.43079992975993
C           2.61896542684515    4.75558699531829   -0.84215854859326
C           3.22743942151669    5.17237388719954    0.35529459006019
N           3.67248331184204    5.58503942888745    1.32944282668160
C           1.76772932130609    5.71155827192801   -1.43200550995066
N           1.07564122994070    6.48630778945183   -1.91943994359775
S           1.94763652205888    3.11475496306428   -2.89537551189512
C           4.47686241810828    2.63894605387063    0.12043049364894
N           5.19675574326379    2.78033499885380    1.00317813664477
C           4.33380291826614    0.12580095791915   -1.52237574358093
C           5.07689003544387   -0.21354727941790   -0.39013089725127
C           5.67187211148555   -1.45320143844274   -0.49628801850475
C           5.39774712708853   -2.09029480026616   -1.71516837678685
S           4.38684870524105   -1.15872761770120   -2.73069583153517
C           6.06853345344063   -3.32753791326197   -1.75291446828304
C           6.77120964805190   -3.49337491058655   -0.54949233416018
C           6.57016879785836   -2.30785548286766    0.36486274509377
C           5.87313074761266   -2.71422537753038    1.66630972094871
C           7.89375364622997   -1.59721514429154    0.66058584252321
C           7.47843065675085   -4.67705340349701   -0.50752787157058
C           7.33246356244997   -5.42588952910345   -1.67614205311037
S           6.28574446322311   -4.63996170466155   -2.83882846793291
C           7.94903262927227   -6.66838763241499   -1.97220515513708
C           7.76000683752741   -7.31453384048887   -3.21513212635721
C           8.41499257462921   -8.54276314460830   -3.55634397797519
N           8.19090144990602   -9.09321887915796   -4.76505069239682
C           7.39193042113582   -8.51174927672158   -5.60018118272638
C           6.74502506181691   -7.29580987813835   -5.26324520388338
N           6.93634740321133   -6.73815078267770   -4.11158390536022
F           5.92300675495735   -6.69472619416477   -6.11855514311630
F           7.19503307881608   -9.09072018956255   -6.78105420216568
C           9.29801479367739   -9.20765803080735   -2.67537439553385
C           9.46698445581396   -8.58568310956020   -1.41305433883298
C           8.80920627513116   -7.34317299338326   -1.07010226021271
N           9.12429079019014   -6.94870212430705    0.16380838262546
S          10.12895601229680   -8.01041036188609    0.82513690944725
N          10.22586473313723   -9.02879397297270   -0.41043818026441
C           9.97080232631063  -10.39817656785341   -3.05172631797197
C          10.85560492980832  -11.14220349929431   -2.27024001727869
C          11.36392453045897  -12.23300331650148   -2.94468086782606
C          10.87252378248127  -12.33377402874904   -4.25528355139494
S           9.76713106968405  -11.08059868519960   -4.65121382712861
C          11.45844242057465  -13.45697229661988   -4.86958963757329
C          12.32508282858702  -14.08193115681488   -3.96071817480385
C          12.33007070789038  -13.35305607680250   -2.63873492657130
C          11.80853805363305  -14.24689478529874   -1.50985955691357
C          13.72490757766151  -12.81834484443697   -2.30341810910575
C          12.96065632112997  -15.18437587167739   -4.49185803670904
C          12.59391222370584  -15.42984235844880   -5.81605971547253
S          11.41685450983506  -14.24652107097436   -6.38397876825932
C          13.05026281951830  -16.46380463331262   -6.66853725052013
C          14.11536792938597  -17.30411672228373   -6.42089534449480
C          14.31952544397737  -18.34437844203511   -7.39056083885258
C          15.29263265492148  -19.31205246922248   -7.38337938053273
C          16.28228260838743  -19.46149691203907   -6.39531074204416
N          17.11173217065883  -19.66030422560799   -5.62726891234912
C          15.34568227620219  -20.26883400430006   -8.41683280998515
N          15.38377022325259  -21.04691340317971   -9.25938799410495
S          13.12245555156126  -18.28597130885209   -8.64986626226398
C          12.32496468920676  -16.74039095823273   -7.96317660419308
C          12.55236020558495  -15.69607911993965   -9.03233418436940
C          11.93150260732165  -15.86293016044262  -10.26776431465328
C          12.14225753537012  -14.95491083041783  -11.28675106380271
C          12.98991239678612  -13.87619254197611  -11.09240000023077
C          13.63852005574501  -13.72577005444789   -9.88068957098105
C          13.42920112231092  -14.63408830601793   -8.85639726621314
C          10.87077492577309  -17.04535215369814   -7.65635704730408
C          10.58586852226602  -18.13517949846786   -6.83973694625120
C           9.28171122627065  -18.43832000337538   -6.49890246139079
C           8.24239340298855  -17.65165256490658   -6.96624885026884
C           8.51923464601891  -16.56016493412782   -7.76964412032461
C           9.82506608218461  -16.25395679576204   -8.11282979381596
C          14.99922026575346  -17.16227459014789   -5.33613660000211
N          15.72279294304947  -17.00532507676429   -4.45895584267273
H           1.97349688030066   -0.45833436086585   -0.94824180681179
H          -0.03328579553812   -1.83381008445080   -0.83208558247503
H          -1.75523855987494   -1.69328979656080   -2.59596046110635
H          -1.44824197782186   -0.11908963001101   -4.47772009168307
H           0.56978357846503    1.27438055277938   -4.59797477044750
H           2.35279038401932   -0.46846414162954   -4.98583395644137
H           3.67475932572886   -0.62742696852388   -7.03507504442933
H           5.52759371279846    0.95078441028975   -7.45350030004585
H           6.04087956576802    2.70104462440049   -5.78507540123508
H           4.70810251304715    2.87958074033836   -3.74090656423636
H           5.15578074022780    0.42312884012120    0.46978929920624
H           4.93097917462519   -3.21389207115227    1.45247521760387
H           5.67349194383253   -1.83356711810982    2.27126935227196
H           6.50748699335022   -3.39285774194016    2.23035968729320
H           8.38940834693632   -1.31869899756892   -0.26650850280742
H           8.55055613262521   -2.25461745911716    1.22412528969555
H           7.71061476407377   -0.69714708143501    1.24157999724401
H           8.08854488837068   -5.01821365562707    0.30737655053672
H          11.09028807179875  -10.85952334290934   -1.26145389385065
H          10.82145496163039  -14.63179117772813   -1.75609384858367
H          11.74097586206698  -13.67723466168661   -0.58679023740923
H          12.48336242649720  -15.08530080050346   -1.35833544299480
H          14.08709131068451  -12.17646018771930   -3.10308696815152
H          14.41982562718047  -13.64461654299947   -2.17842323868041
H          13.69025782558141  -12.24271054610969   -1.38223856407016
H          13.65116873740723  -15.80411407340850   -3.95304421413553
H          11.29131631627339  -16.71858039149540  -10.42884291551082
H          11.64973904368985  -15.09494448129551  -12.23702955057273
H          13.15497878064987  -13.16610926698250  -11.88835111902544
H          14.31935612113407  -12.90214658115379   -9.72711837487787
H          13.96210812832216  -14.50825556441855   -7.92522566138405
H          11.38980579927907  -18.75788642350931   -6.47280387372493
H           9.07914522545595  -19.29041656575192   -5.86790121415377
H           7.22255658998965  -17.88828684319828   -6.70336959664071
H           7.71698509619303  -15.93676528783304   -8.13445461890411
H          10.02298925323216  -15.39088724565905   -8.72968171201203
