126
 SCF done       -259.380991468464          0.000774224120
C           0.34873111557774    2.34120079355773   -2.12401855221920
N           1.29617417891712    1.52909823251991   -1.40808612964519
C           1.42627173285315    0.15849792510997   -1.29588621247283
C           0.77629444335950   -0.86258396613968   -2.05911814538472
C           0.63435121541236   -2.14497860528457   -1.58491099122164
C           0.74310240171693   -2.47766861787038   -0.21944595737752
N           0.78751779038077   -2.70505946342486    0.90355812311227
C           0.31779606032412   -3.13934864120010   -2.57567482220269
C           0.08933165454160   -4.47428093806595   -2.37644615871603
C           0.09487954986901   -5.11428511902519   -1.12246887984433
N           0.07488253567642   -5.70382260574194   -0.13866527678491
C          -0.17444341524658   -5.31996635701680   -3.47381466883646
N          -0.39100967620801   -5.99674001176700   -4.37426962256083
S           0.33542286508030   -2.44867005342765   -4.17397160646552
C           0.34490012694293   -0.69200240953815   -3.49541085143006
C           1.36302963242156    0.11925098810816   -4.26165627611747
C           2.69374238387242   -0.28508693353138   -4.18626001340986
C           3.68437010489160    0.42068367713487   -4.83984982838600
C           3.35950358093234    1.54292820587747   -5.58395518997894
C           2.04001736217008    1.94880297874269   -5.66704627758978
C           1.04466448813126    1.24452165068913   -5.00969068468079
C          -1.10619030300100   -0.28183611225644   -3.64082484708185
C          -1.92132562711961   -0.07169862205127   -2.53330988083967
C          -3.25836263547035    0.24947690533551   -2.70028014938363
C          -3.79800241468976    0.35347728469916   -3.96938339599620
C          -2.99906710393602    0.11445205209382   -5.07608920334005
C          -1.66616979790506   -0.21088775145122   -4.91406865135189
C           2.44256886828745   -0.12693467725547   -0.36877495731119
C           2.93071746213716    1.08965153737831    0.08101985914606
S           4.13003883024947    1.71565205160193    1.17305249289042
C           3.62299537792632    3.33553970413552    0.77091624150898
C           4.04046486057667    4.59758693088733    1.19909221119602
C           3.32057718573028    5.61367733003121    0.61437170853090
C           3.50918478262018    7.02536300338295    0.82165369587894
C           2.51022949497661    7.95595107930319    0.73341086658833
C           1.08786431239181    7.57806382214000    0.70447596407157
C           0.53281281831069    6.70885625407745    1.64662361330260
F           1.31217104196914    6.16631445772459    2.58438567712526
C          -0.81941209781516    6.39119080312885    1.63597202862089
F          -1.31796804654526    5.54659845023296    2.53835474390409
C          -1.65610713010585    6.95367128749637    0.67449821001365
F          -2.95028620645047    6.64351189115772    0.65069975235180
C          -1.12927751017625    7.83478984540537   -0.26590391142465
F          -1.92131809908227    8.37089525775439   -1.19394066732520
C           0.22568185972212    8.14090522320886   -0.23743512328212
F           0.72116609362709    8.96522505591497   -1.16560087424810
C           2.75515814848438    9.37924182942952    0.74213774722184
C           2.07625973717279   10.31770693199935    1.51741054996865
C           2.74604589191664   11.52746615799092    1.34587907052834
S           2.69477425268349   13.16642888929364    1.92357272679681
C           4.10332864257430   13.53509153391666    0.95780974345873
C           4.88574673432304   14.67637268873658    0.81350531612355
C           5.96696113719909   14.47206574865991   -0.02670948549920
C           7.02025400137606   15.37507025366942   -0.33743801324069
C           7.00824606214152   16.72973955433623   -0.11095686928162
C           5.86441787717597   17.44692576024413    0.28906255932880
N           4.90555400685316   18.00362685632889    0.58300245344223
C           8.25571743723786   17.40505534520415   -0.35375227115663
C           8.52015265717492   18.74184372429219   -0.20755550383906
C           7.58845727388543   19.71027577859971    0.20970479157399
N           6.89236918105915   20.55656600576784    0.54978124226241
C           9.81221116609403   19.24008697053839   -0.47354433292341
N          10.86691309399007   19.63474646093553   -0.69236706889907
S           9.49575248550684   16.28822716596945   -0.84200539040652
C           8.30985785836568   14.84377249621857   -0.91366038197098
C           8.21815865997391   14.50117061491110   -2.38417254073968
C           9.37174771028408   14.07720828372568   -3.03962153204591
C           9.34562170130853   13.79016539530192   -4.39013001198669
C           8.16987087940920   13.93613706046508   -5.10905282475550
C           7.02891165165729   14.38554684713656   -4.47055034663550
C           7.05125271245999   14.67440087268196   -3.11590834690000
C           8.84041129257884   13.73358011450065   -0.02749082542717
C           9.08151616835007   14.02192743343272    1.31217532912924
C           9.51566050131602   13.03619652491264    2.17785235769297
C           9.71485406456321   11.74576493104801    1.71652838153294
C           9.47433108064915   11.45195312187292    0.38617932173415
C           9.03714743193979   12.43643018111725   -0.48355758768047
S           5.98859245524282   12.83100084913260   -0.67017341687035
C           4.56897038053857   12.43991973735991    0.21409208106751
C           3.79916778481343   11.29858769946642    0.43990170765592
N           3.79849306345430    9.98802821936713    0.07969364198140
C           4.54097586224768    9.49069112333441   -1.04737556752248
C           4.88777633580483    7.43495106617858    1.15791964773226
C           5.16519518590417    8.25892042206399    2.25118030571810
F           4.17277182277783    8.68207831424270    3.03418585545584
C           6.46382381564302    8.64467133508005    2.56598342131099
F           6.69088927743583    9.44790935530805    3.60408359483191
C           7.53033933229753    8.18938347161354    1.79585873446751
F           8.77618663562314    8.55256775557200    2.09082522893655
C           7.28311515415807    7.35226778670832    0.71133375068888
F           8.29450832668178    6.92296285376088   -0.04400630730668
C           5.97762793879632    6.98716412734795    0.40704286450480
F           5.76371738742840    6.22482121371450   -0.67129177943275
S           2.11990510015196    5.00476882604732   -0.51445437117901
C           2.58670336531019    3.38001747815839   -0.16920612262354
C           2.19475061334095    2.09960424826549   -0.56879360979124
H          -0.11227889177660    3.04696201325576   -1.42884426000788
H          -0.43000291138720    1.73291378778950   -2.57099915730930
H           0.85922662044269    2.90976513350204   -2.90480574151536
H           2.95226325958101   -1.16651204327664   -3.61649939989101
H           4.70980226147513    0.09140327955778   -4.77095745250976
H           4.13091227404883    2.09464167079593   -6.09895404121138
H           1.77632308842368    2.82030873655502   -6.24750931700518
H           0.02251975014608    1.58368637076198   -5.08345963332383
H          -1.52155008751131   -0.16354481057032   -1.53262397115625
H          -3.87645542777747    0.41023277755011   -1.83033953498812
H          -4.84009733946131    0.60248854954639   -4.09632207957593
H          -3.41718015932403    0.16768213548514   -6.06954383483881
H          -1.05555781272621   -0.43655173736687   -5.77632928302810
H           2.79575102603261   -1.10133072461873   -0.10150803887159
H           4.81047066199028    4.76067758640502    1.93049235426074
H           1.24787873337296   10.11413523656412    2.16460770498881
H           4.69410832480280   15.60064125450688    1.32416279297941
H          10.29468422459506   13.98851461666359   -2.48433726979050
H          10.24751063430047   13.46126012815555   -4.88360178849254
H           8.14936251395908   13.71513102097811   -6.16532658861837
H           6.11353084558268   14.52361646101126   -5.02596198011341
H           6.15300318892871   15.04410938903031   -2.64343537132484
H           8.93204576380698   15.02746182135689    1.68026586331139
H           9.69734991247736   13.27732817291825    3.21393713815302
H          10.05330900948055   10.97318690028672    2.38922318937723
H           9.62999726987503   10.44921617476720    0.01673836859224
H           8.83769408828446   12.18586433128596   -1.51446455680987
H           4.37530549015889   10.14423014726332   -1.90676352421773
H           4.20528423104528    8.48910664576883   -1.30483541238936
H           5.61163197165497    9.47809376490656   -0.83039047301822
