75
 SCF done       -158.449929904360          0.000212245499
C          -3.24056267111556   -1.37639529622615   -0.64210356342340
C          -2.43654669052460   -1.91910074471160    0.28395029840217
C          -2.09389165028280   -1.16309354513087    1.46239254017057
C          -1.27690640829317   -1.66623849877640    2.45340078973467
C          -0.95283219960302   -0.91867904881960    3.59872795712532
N          -0.69133419511755   -0.30482188757150    4.53338090440946
C          -0.72465420952488   -2.95581040247309    2.37345009506672
N          -0.27733233199973   -4.01124690921522    2.30104630349413
C          -2.66471442173885    0.14467433047580    1.52857321572731
C          -3.47177875318802    0.60702756042565    0.53587931367311
O          -3.77176986254097   -0.14313089684964   -0.55970755953375
C          -4.08677386058006    1.90735580825362    0.53612510570267
C          -4.92637606193647    2.41515118647708   -0.41542769202661
C          -5.37453485619538    3.72535511326640   -0.12532982172154
C          -4.83665005146630    4.21007838072025    1.09930238532909
S          -3.79786758685895    3.02753623173986    1.84889979470613
C          -5.13118646176015    5.46060507865417    1.59092664911233
C          -5.99589095701808    6.26617717778918    0.84534982677706
C          -6.53704635432724    5.78260449709851   -0.37816886343182
C          -6.23733129593188    4.53236551544083   -0.86904751420931
S          -7.58898997014701    6.95934012660292   -1.11427730554775
C          -7.30376436379423    8.08642247757877    0.20259404726205
C          -6.44723498560396    7.56939999073695    1.14269008468057
C          -7.95024551055582    9.36295497727710    0.19010177560849
C          -7.78515093739448   10.35708307228153    1.18011437575883
C          -8.47590606169644   11.61671061417253    1.10722862013868
N          -8.28498082000409   12.53367028564788    2.07844192112893
C          -7.48834791256599   12.28049357498313    3.06193611035150
C          -6.80505599535468   11.03738746666051    3.13221012231272
N          -6.95866291664999   10.13125681176614    2.22587681996670
F          -5.97949515259962   10.76523376705298    4.14026887928568
F          -7.32832461472822   13.20950343692410    3.99711417670276
C          -9.36018510478766   11.95914900356948    0.06203453707993
C          -9.52448737309988   10.97091578604126   -0.93257471416988
C          -8.82873969320566    9.70742127976828   -0.85964540530692
N          -9.12413462952820    8.92303560417152   -1.89719858847344
S         -10.15638603037759    9.67842754942116   -2.85880083238650
N         -10.29264723954200   11.03943987788301   -2.02351371667779
C         -10.03207575070140   13.21964763412346    0.02635171054320
C         -10.91816488291610   13.64636057891727   -0.93372899095045
C         -11.41981597096317   14.94392719831877   -0.70395254891005
C         -10.88226385442367   15.51414006785521    0.48386143259240
S          -9.77864987055655   14.41990648414185    1.27482610413587
C         -11.22439724529716   16.77749038973176    0.90832326830140
C         -12.12928428771984   17.50814281886906    0.13536138022318
C         -12.66748700260702   16.93387460952612   -1.05017260998175
C         -12.32819799475905   15.67129953053785   -1.47768233715324
S         -13.76873936939835   18.02760248433055   -1.84117805742020
C         -13.50076268339667   19.23204831484081   -0.59839263079152
C         -12.62307585960268   18.81438142280845    0.36240067304968
C         -14.19642030930444   20.48472480776865   -0.70846371313186
C         -14.07038230654671   21.52435731650561    0.16069574941103
C         -14.80217739170036   22.73523218376762   -0.03621348610996
C         -14.69468792217442   23.80955837064782    0.82363639196314
C         -15.41699602501648   24.99731893069836    0.62110148526542
N         -16.01000699053152   25.96604513710948    0.45037049670520
C         -13.85331293469464   23.77111523979173    1.94826472058139
N         -13.16128698652764   23.72551654486051    2.86394553857767
C         -15.65718557679169   22.75400672660005   -1.19612624199696
C         -15.71428120817357   21.67761378207809   -1.99496013921723
O         -15.01536072142709   20.54880994879144   -1.79151823381499
H          -3.54174899255243   -1.87936535985754   -1.54882199943037
H          -2.04421940880156   -2.91452700856614    0.15741774381875
H          -2.45369624162851    0.77306532427282    2.38005496033487
H          -5.21618761113902    1.86709013582371   -1.29372929789954
H          -4.71502080077964    5.81423984564676    2.52035028760241
H          -6.65457668596037    4.17937706590308   -1.79845538242712
H          -6.15405328048994    8.11146591406844    2.02104010454681
H         -11.19343911295092   13.03878987970061   -1.77577565245448
H         -10.80877194044477   17.19785871634999    1.80991337022632
H         -12.74363307309255   15.24986816552664   -2.37900327494074
H         -12.33121274217813   19.40939010171794    1.20833747216598
H         -13.41126959334984   21.44245834749339    1.00896065074065
H         -16.24233614462257   23.63254358391233   -1.41173894032334
H         -16.32824103509745   21.61328541224795   -2.88064107651384
