79
 SCF done       -167.990263912965          0.000622720382
C          -1.96289017004614    0.44720460186078    3.92815493849364
C          -1.81100352093072    0.63724831304570    5.24701521945568
C          -2.17510612299933    1.90396302480135    5.83117411645242
C          -2.05204366659667    2.16167185862802    7.18197994507777
C          -2.41349859244015    3.40365970349928    7.73034094044907
N          -2.71288591093140    4.42320114765512    8.16670736282341
C          -1.56420304786480    1.19757891592749    8.07964009346644
N          -1.16692741618943    0.40438688902193    8.80921396755728
C          -2.67778283135699    2.87205038170343    4.91214823468127
C          -2.79959592741401    2.58261177986190    3.58578449501568
O          -2.44453316797120    1.37147952909672    3.07749297981646
C          -3.31326005839926    3.49310253968752    2.60566519355611
C          -3.50033082343945    3.23606281855136    1.26014813291823
C          -4.04088683834167    4.33442911508336    0.59484620319138
C          -4.26074330258680    5.43614177560079    1.44569080740345
S          -3.80368783123094    5.11582240073158    3.05743623617849
C          -4.82245717103760    6.49591718641025    0.69390997153381
C          -4.96213455526772    6.05776244824890   -0.63908974572451
C          -4.47169543399170    4.69234201063597   -0.74613578869682
C          -4.42691017772378    3.91452317453773   -1.86565045962779
C          -4.87964738159405    4.37344746436134   -3.12102947840471
N          -5.24377536286249    4.73550151361019   -4.14622282222143
C          -3.92314907322007    2.59680608159706   -1.84035669480524
N          -3.51264878743270    1.52624680705922   -1.81997992999324
C          -5.52482526281360    7.02115853107893   -1.46439143478400
C          -5.81136868501782    8.19200421463238   -0.77205056612518
S          -5.37301514194242    8.10338877247262    0.92285619750075
C          -6.40185354499042    9.36771369505736   -1.29982683687654
C          -6.61414713477139   10.50130136556777   -0.47795285700219
C          -7.21295802789429   11.71578249740400   -0.94747939207822
N          -7.36859221778904   12.74092392354898   -0.08720550128501
C          -6.97372077110289   12.60515639180091    1.14762910953538
C          -6.38754466715883   11.40966380517622    1.61004173844610
N          -6.22144398087041   10.39885767375257    0.80461875519395
C          -7.64280488533261   11.84644232045321   -2.29523653472400
C          -7.43065040871367   10.71640721070163   -3.11281233505488
C          -6.82133151660093    9.49846721398598   -2.63967773440902
N          -6.73718262692819    8.58635587739257   -3.61115310395093
S          -7.34992685729596    9.18392074799194   -4.96303478742001
N          -7.76019979241768   10.63195897489257   -4.40389155709144
C          -8.25316163772129   13.01265659418713   -2.83108165650297
C          -8.52353045937125   14.21372323793843   -2.18560515703776
C          -9.13236628822237   15.13249671440810   -3.02843123914471
C          -9.33338576189233   14.63316492419183   -4.33162050475032
S          -8.76545412878953   13.03189211034055   -4.51311498524296
C          -9.95720121669028   15.64487948184265   -5.10027096577191
C         -10.15010430855295   16.78120348679627   -4.28926618999362
C          -9.63613505213924   16.49574991427267   -2.96055703908710
C          -9.62379468231034   17.32748002811731   -1.87951264320321
C         -10.14154679358600   18.63868990561105   -1.93908394385090
N         -10.56237172170372   19.70414626228307   -1.98857834444209
C          -9.09182031349209   16.93530286239450   -0.63260142537949
N          -8.66250907465028   16.62784145839396    0.38513707926958
C         -10.76249027543910   17.83262793689820   -4.96875216992667
C         -11.03477725493238   17.50403520330462   -6.28346340289235
S         -10.52893552369921   15.87409717197715   -6.69084306798705
C         -11.65548903509978   18.34546087415661   -7.26361325335332
C         -11.89928893214722   17.97195159606336   -8.55145533363298
C         -12.52024578666799   18.86893960070854   -9.47050645825327
C         -12.77921729491557   18.52155666088331  -10.78132155183263
C         -13.39007020601996   19.41356295344753  -11.67827047603948
N         -13.88935946232568   20.14759495497109  -12.40707042047864
C         -12.44340377880130   17.25453044240289  -11.28714501136249
N         -12.16368138184486   16.21499115111179  -11.68788349041923
C         -12.85586598280489   20.16272759938151   -8.93024806759276
C         -12.57687993093911   20.43846027176223   -7.64779923872422
O         -11.98982278834258   19.57859136036049   -6.79573087771724
H          -1.71379047865529   -0.47035305032947    3.41680347944616
H          -1.42080367197440   -0.14593591252095    5.87545471810695
H          -2.97092913084014    3.84471446605943    5.27634733434803
H          -3.25414714314257    2.29167196254240    0.81007996799554
H          -5.73282037716468    6.91433448389365   -2.51314966776443
H          -7.11971774512598   13.45743021802430    1.79616452841951
H          -6.05750362686842   11.28494347740934    2.63119328058722
H          -8.27297302252002   14.36863223191890   -1.15287756732581
H         -11.00485378482306   18.79140168969314   -4.54799289519669
H         -11.61915511875294   16.98426208093474   -8.88411038987172
H         -13.32785196192625   20.89685145264903   -9.56179205839573
H         -12.79643217196353   21.38151744506690   -7.17045797352724
