81
 SCF done       -177.011893700742          0.000906160675
C          -1.47274739273277    2.49978418831349    5.41222150008217
C          -1.21697193943815    1.18587506429490    5.33685609324993
C          -1.53932751381279    0.46397872957991    4.13068362677609
C          -1.30463301386424   -0.88984207526367    3.99654741904044
C          -1.62080113428685   -1.58585361822417    2.81685595112069
N          -1.88087767709638   -2.14902642754815    1.85056411906787
C          -0.73962940807260   -1.64971589830038    5.03493034813390
N          -0.27926934764442   -2.26555948266841    5.88793903343179
C          -2.12316929408954    1.24492839851164    3.08818626353869
C          -2.35035042783424    2.57765150634900    3.26272765392262
O          -2.02692674669238    3.21865356730550    4.41943439914372
C          -2.95179593528056    3.44518878028590    2.29612683789301
C          -3.41122523002569    3.15642774795555    1.02373203372551
C          -3.96216303415708    4.28027420565337    0.41255884451734
C          -3.91714465292833    5.42901031937491    1.23055224078263
S          -3.19403008098356    5.12437499014356    2.74374670833911
C          -4.51883133748158    6.50749326930148    0.54140377529341
C          -4.94785013603402    6.03815333117208   -0.71901948045028
C          -4.60718755752245    4.62953668125036   -0.84287066775137
C          -4.85023096330202    3.81416804436460   -1.90835797364846
C          -5.49668660741295    4.27602600729028   -3.07519636414541
N          -6.02194139097726    4.64526335127517   -4.02498021977558
C          -4.47277523063260    2.45404482463286   -1.91267488194794
N          -4.16722100442836    1.34934756840291   -1.91859878019465
C          -5.57852466550410    7.01736722929937   -1.47086965032322
C          -5.63694648067212    8.23263780168664   -0.79595680221805
S          -4.88818556604963    8.15992287667102    0.79069538484808
C          -6.23804635235568    9.42826480570948   -1.26119443915374
C          -6.23332104897218   10.60422670625999   -0.47349957124295
C          -6.85466453487514   11.83952003531819   -0.88464138340803
N          -6.82598455651261   12.88987250285334   -0.05140034865548
C          -6.22970981197872   12.78951039202160    1.11052830276589
C          -5.59255574762139   11.56986667497965    1.50852083360295
N          -5.61898320772404   10.52970309908492    0.71242958072976
C          -4.93793891510822   11.46387900163566    2.76038699369678
N          -4.41614058630888   11.39661607062155    3.77756313278229
C          -6.22865178738923   13.89865329089289    1.99567389286035
N          -6.20953414050800   14.75632631914154    2.75353116683589
C          -7.51578608366738   11.94557608412342   -2.13449947345955
C          -7.52242843864636   10.76829775632085   -2.91624521583441
C          -6.89756738325819    9.53649292027331   -2.50566090955265
N          -7.04826425434441    8.58374539181993   -3.42701915547442
S          -7.87780761228418    9.16019020930432   -4.66837911994063
N          -8.09762387501345   10.65153885942118   -4.11396420307374
C          -8.16255194815562   13.12023180952355   -2.60453186012631
C          -8.17306404555923   14.38914453205436   -2.03576949174457
C          -8.93938898276903   15.28247339149478   -2.77062444234820
C          -9.52947473201559   14.69281944704579   -3.90848087884712
S          -9.10962276632373   13.04772331991033   -4.08547004971667
C         -10.31044875008225   15.67553291417995   -4.56165438987046
C         -10.21493900527061   16.88463241910229   -3.84425288913994
C          -9.33812480020711   16.68023228242522   -2.70289618322698
C          -8.95531319986054   17.60395641345567   -1.77628215048642
C          -9.41670966159235   18.93701620104674   -1.81573306591529
N          -9.79683731755152   20.01799460766983   -1.85136646172242
C          -8.05843051622449   17.28858142885840   -0.73201505586034
N          -7.31867278673153   17.04626486375624    0.10899419409097
C         -10.96868822686617   17.91013841322661   -4.41110897012603
C         -11.63639924179115   17.48805645905320   -5.54601021273126
S         -11.32632674196318   15.80484096461798   -5.92655218751806
C         -12.50992480219976   18.27752117796141   -6.36403697936141
C         -13.17125201371547   17.80472335888528   -7.45789999679694
C         -14.03388403935765   18.65145887355113   -8.21580051116392
C         -14.72355638269939   18.20039974465803   -9.32344869251632
C         -15.57337764336706   19.04115057691152  -10.06173782665328
N         -16.26737563421959   19.73355417105216  -10.65987930962008
C         -14.61256930252610   16.87214974173816   -9.76861863170159
N         -14.51206363949131   15.78304651467885  -10.11937426766505
C         -14.13408476328837   20.00802028190912   -7.73806308628555
C         -13.44203760710100   20.38114764770463   -6.65150871993109
O         -12.63545951384433   19.56618218167015   -5.94751749506119
H          -1.26128717827633    3.11073977911609    6.27657529266660
H          -0.77354203585679    0.66221881208791    6.16730799962295
H          -2.39024116921472    0.76774386645373    2.15966393805121
H          -3.34906865605862    2.18277236431813    0.57394873019951
H          -5.99103425213729    6.89255845548455   -2.45511174103565
H          -7.64291927998573   14.61655166920469   -1.12994888347216
H         -11.04445390683363   18.91294375316085   -4.03210581618506
H         -13.04593034567533   16.77497892541349   -7.75590912434551
H         -14.76493933092675   20.70986915893952   -8.25762660383782
H         -13.46419367464733   21.37570837664104   -6.23223167563285
