115
 SCF done       -238.653021206064          0.000515045185
C          -0.94802265665388   18.57617500614763    8.15109770000356
C          -1.59461892996286   19.60952333429218    8.71210661268113
C          -3.03438738952432   19.65417239261931    8.67251458159902
C          -3.76377326996806   20.68869709913666    9.22355120191783
C          -5.16748458136184   20.70707586215141    9.16627775207058
N          -6.31496763028563   20.70699167366894    9.11015112700026
C          -3.14587251180384   21.77394299881650    9.86637954258213
N          -2.63394201084113   22.65827731790293   10.39125294644516
C          -3.65839350484151   18.55051635348104    8.01605872361393
C          -2.91334077824880   17.54629051666118    7.47831879543001
O          -1.55578680407485   17.54660830469572    7.53822993879323
C          -3.45835331958824   16.40937551083134    6.79064103010291
C          -4.76989668875880   16.07841377368844    6.60204918734014
C          -4.94928814375525   14.89409982916174    5.85176294171662
C          -6.16490369599527   14.29855057077249    5.44896787270698
C          -7.45778670498010   14.87883915620593    5.74564445131174
C          -8.61676852144307   14.22231017603159    6.05154212359897
C          -9.70986314055607   15.09496207892721    6.23561455208985
C          -9.41496818016989   16.41687966265972    6.06171436454333
S          -7.74084672369312   16.59956719020766    5.66898335908604
C         -10.30885689346346   17.59563801980798    6.17309675235987
Cl        -11.27993744590341   14.52216600859882    6.64352360558512
C          -6.06430026172295   13.11753082809457    4.72134231352894
C          -4.82301281271498   12.52851574251322    4.36563106642067
C          -3.60548742851572   13.13345727188309    4.74980691686473
C          -3.70941052893825   14.30053623686715    5.49980148427999
S          -2.36638588003692   15.25102254779593    6.07240219182935
C          -2.31485956306329   12.60409592953187    4.36470247533324
C          -1.16265094365530   12.58601152502315    5.09989276412377
C          -0.06905184634656   12.04791005556463    4.38968517108134
C          -0.35824417168151   11.66536317312675    3.11139116115599
S          -2.02876401418997   11.95833342895691    2.76985872820110
C           0.54196221474474   11.07155939893162    2.09114499105030
Cl          1.49589149995346   11.89636263705313    5.09118203251473
C          -5.00402650936407   11.34218818204971    3.62749263183451
C          -6.31987301563843   11.04034161922593    3.37582736448621
S          -7.40755328051419   12.21132572814067    4.07534204547490
C          -6.81236965179954    9.92777667931907    2.63016141798035
C          -8.18986804196984    9.76149594990167    2.38419935756486
C          -8.70785087117357    8.68062149974079    1.59834330944811
N         -10.03841959271952    8.59399525833036    1.39204086361837
C         -10.82638092995740    9.48060944031962    1.90464796918441
C         -10.31289988850327   10.55006705843872    2.68873169826488
N          -9.04442984648151   10.66591008379838    2.90609504096407
F         -11.12334446801145   11.45764589536117    3.22018728026377
F         -12.12948742520462    9.36404425446404    1.67783406326971
C          -7.87931631959294    7.69812234696593    1.02034199954737
C          -6.49732110590533    7.84153282494595    1.28094938479557
C          -5.97313483419842    8.93749950709987    2.07025367048197
N          -4.64477620220671    8.86903853026517    2.17866013563600
S          -4.11174396667445    7.58295167721230    1.38499616387129
N          -5.52170759592241    7.03617113658599    0.85602074328688
C          -8.41999218996361    6.64629705039167    0.22198218950672
C          -7.71973386185297    5.63433288167029   -0.38764744093942
C          -8.52682599612530    4.74938363301189   -1.12953114563172
C          -8.11978944444180    3.60650030512968   -1.85419022145567
C          -6.75310599568904    3.13195623377097   -1.85544078364539
C          -6.06118457452981    2.56148267263827   -2.88846057005496
C          -4.76178803254101    2.16006424748355   -2.51864312234057
C          -4.44754818042302    2.39681743050071   -1.21032997052010
S          -5.77836302569533    3.15251620505987   -0.40917755781462
C          -3.17361721631005    2.10753154912636   -0.50382684848682
Cl         -3.66498362657423    1.42626766453448   -3.62331714669733
C          -9.11830462291840    2.93676123095073   -2.55456041196342
C         -10.48321081298411    3.32359482688734   -2.52721649713893
C         -10.89396893508096    4.44128866003489   -1.76748495748504
C          -9.89133914397960    5.13896325635917   -1.10245047371432
S         -10.13038619988736    6.55192424713794   -0.10797008240424
C         -12.28029279168707    4.84363116049584   -1.65754050529438
C         -12.78242651570475    6.11246251726271   -1.58254148590916
C         -14.18411621990456    6.13981672563327   -1.42461386801251
C         -14.77144993734786    4.90866008305817   -1.36175061850248
S         -13.56900521184296    3.67483594567147   -1.51115237405657
C         -16.20578011062816    4.56524606564943   -1.20155102951587
Cl        -15.06412526673623    7.61430907330338   -1.31781856026542
C         -11.28488526569075    2.47872895065708   -3.32797924215079
C         -10.58558541105435    1.46481753417963   -3.91807828366141
S          -8.88413377496941    1.51093168503604   -3.52773790856512
C         -11.07095824440991    0.43091007222809   -4.78860157027432
C         -12.37610569569057    0.26807556196493   -5.13899612160885
C         -12.77303507317382   -0.78941415333289   -6.01222311882910
C         -14.08844379975147   -0.97868029339734   -6.38612265196190
C         -14.47384026014787   -2.01991631290715   -7.24638058135737
N         -14.78305316086660   -2.87378927157706   -7.94984271581836
C         -15.11082412008779   -0.13411814878874   -5.92200838090237
N         -15.93521918812588    0.56513252660625   -5.53305390439483
C         -11.70396331603119   -1.64018042299923   -6.47028047828073
C         -10.44706630834729   -1.40086848954321   -6.06595820097936
O         -10.09520229450822   -0.39787901369153   -5.24431089807928
H           0.12636538445824   18.47115380090063    8.13759970245109
H          -1.04995055607693   20.40704151263117    9.18963667410106
H          -4.73284574603113   18.52281362078872    7.94378870974395
H          -5.58315563497870   16.65782127206791    6.99456452376161
H          -8.69304826218716   13.15921958964373    6.18015848387506
H         -11.28668509568105   17.27981118519438    6.52770869298089
H         -10.42570282597424   18.08241495610412    5.20484587621661
H          -9.89565152977839   18.32655733239134    6.86685971540905
H          -1.09316227272520   12.90398114168176    6.12326762837552
H           1.55465786150026   11.01917878801466    2.48269689551247
H           0.54293033018616   11.67351476683923    1.18332628070254
H           0.21300605580833   10.06683410083610    1.82670320421410
H          -4.20771408371049   10.70998302678008    3.28455811161352
H          -6.65268086623343    5.56007877632347   -0.30169147757738
H          -6.43914819465046    2.46354267598051   -3.88877649645520
H          -2.76513236501053    1.15903322100549   -0.84776969392290
H          -3.33396613835591    2.06299465151824    0.57014489459244
H          -2.43730465792156    2.88535446389907   -0.71132870465891
H         -12.19033900688014    7.00341639148310   -1.67209828142106
H         -16.79855796063221    5.47611188169053   -1.17917958123070
H         -16.36843150166454    4.01450173675634   -0.27531941867827
H         -16.54486382846627    3.93944368241418   -2.02630747366206
H         -12.33782368819789    2.62653057358612   -3.47188183168924
H         -13.12537740820487    0.93984063985945   -4.75460915116553
H         -11.92329259860400   -2.46160786904631   -7.13201328335930
H          -9.59387477613967   -1.99200909373375   -6.36285205902051
