55
 SCF done       -131.737675223839          0.000388298790
C           1.12037008872466    0.25714605336172    2.47967442928944
N           0.87060636605963    0.31693461105075    1.20507700545296
N           0.34071873973372   -0.67664254614966    0.52421805129232
C           0.00840069822402   -1.82980764448719    1.07422124816858
C           0.23620247608918   -2.01493672759244    2.47289578704673
C           0.81981398797099   -0.92181920619947    3.20506020473765
N           0.93926515711506   -1.31501916772347    4.45938557994085
O           0.46582065818113   -2.55628177660695    4.50024333733033
N           0.03768051661109   -3.00035609849864    3.32209987012491
C          -0.56334880115253   -2.84479614377798    0.25045406123690
C          -0.80835333829357   -2.73964858080511   -1.10670783499807
C          -1.37157621521378   -3.90519114928148   -1.61252557973174
C          -1.56102286461273   -4.90789330530577   -0.64327110429312
S          -1.02946676398431   -4.39280999473856    0.91757743113173
C          -2.12393566405395   -6.07642743930246   -1.14308845197029
C          -2.37471396946247   -5.99048861691926   -2.50348569598224
S          -1.90144106993652   -4.43400987039527   -3.16947920203620
C          -2.93621471889072   -6.97392897366310   -3.37027363924087
C          -3.38306337057303   -8.25494774134485   -2.96259359608331
C          -3.92473482504980   -9.21723555421189   -3.88934238708353
N          -4.32842594144603  -10.41821685793513   -3.42087116863788
C          -4.23013790179366  -10.69034984356218   -2.16287478491921
C          -3.70063465194365   -9.74253357461645   -1.25090560917530
N          -3.30022409322195   -8.58377577717175   -1.65502374412533
F          -3.59947895844248  -10.01227123509212    0.04782370078179
F          -4.64363781450574  -11.88747700911063   -1.75575999155880
C          -4.05069528809826   -8.95136140634007   -5.27515960391648
C          -3.62169191901301   -7.66702139711307   -5.67323677561679
C          -3.08088585189221   -6.70696407054547   -4.74853194337261
N          -2.74547662785679   -5.57084669979421   -5.36232601531473
S          -3.07290564239090   -5.69181782379120   -6.92580156912452
N          -3.65445787380511   -7.18435296767375   -6.91664851974055
C          -4.55786057416074   -9.87054890550705   -6.24029805885240
C          -5.00524040616575  -11.16816634956399   -6.05012627796623
C          -5.41452961571833  -11.75924765081781   -7.24035236468335
C          -5.28742030733712  -10.92081864992866   -8.36383892571142
S          -4.65028358155869   -9.37633866635971   -7.92504287118061
C          -5.68944469645616  -11.51737028755354   -9.55432316526160
C          -6.12382894409353  -12.81234864567723   -9.34128090887521
S          -6.04493745310222  -13.30968721346011   -7.66870028855734
C          -6.59983362897959  -13.73746043765837  -10.31410190991743
N          -6.97450473192234  -14.93547393492729   -9.91293396118273
N          -7.42172728527084  -15.86513187702219  -10.72888731966479
C          -7.53306847895299  -15.68762016873187  -12.01164987813992
C          -7.16775295272858  -14.44645368604600  -12.59017831012342
C          -6.67970566918806  -13.41866384890350  -11.70699140099580
N          -6.40259294168545  -12.36365093782711  -12.44425941536840
O          -6.69635102131917  -12.70729638584828  -13.69724187601923
N          -7.15619544716382  -13.94803408310610  -13.81197246552137
H           1.55621758828719    1.12689306373865    2.94421502816387
H          -0.57708826761439   -1.85057693257601   -1.66221353026654
H          -2.34517083683515   -6.95075566415937   -0.56319373472007
H          -5.02365578163571  -11.64351011903129   -5.08933904442064
H          -5.67343017812643  -11.05658126309087  -10.52485382305792
H          -7.90772931135665  -16.50988882061391  -12.59960898728002
