73
 SCF done       -166.996252475298          0.000802032346
C          -0.06947792978763   -5.79416494360246    5.99718443657704
N           0.62842682253939   -5.86694363788247    4.90311925776580
N           0.11864123787778   -6.25184111503081    3.75327270702022
C          -1.14315686370424   -6.60164416774039    3.60109323613929
C          -2.01363758148246   -6.56427879655822    4.73421323986599
C          -1.44414572961281   -6.13890076343033    5.98647844561892
N          -2.41070919370557   -6.17648021757216    6.88446306730392
O          -3.49355180945599   -6.59284567132644    6.23960040896644
N          -3.28474555232281   -6.83248076807725    4.94873053901175
C          -1.58016162701490   -6.99825708335037    2.30546099766302
C          -2.84695857406274   -7.39718553245885    1.91680273815318
C          -2.88450142635571   -7.70016599511197    0.55883106505823
C          -1.63195654271804   -7.52679528899438   -0.07373831280867
S          -0.41759745616484   -6.99523722502234    0.99645140716216
C          -1.77023492046886   -7.84871333269640   -1.44631845996458
C          -3.11120796511245   -8.22264958672183   -1.68143630215726
C          -3.85011384278035   -8.14608754416861   -0.42940238034927
C          -5.16849070973043   -8.43616682700523   -0.23563258089523
C          -5.99944417011704   -8.86535376679183   -1.29239073850982
N          -6.67239363767968   -9.21087195914258   -2.15404596689051
C          -5.79142347304209   -8.33137514254271    1.02672125329145
N          -6.30986272962472   -8.25284841504565    2.04587070378281
C          -3.35430049515396   -8.54674437388722   -3.00872950101701
C          -2.20448006564083   -8.42219851548943   -3.78040990790226
S          -0.80438226568776   -7.90256553597298   -2.85508155835975
C          -2.05928072506940   -8.64772887657170   -5.15916702756786
C          -0.86321535177099   -8.50907108729361   -5.87263641582657
C          -0.99248861557801   -8.79246721956391   -7.27415660181267
N           0.07726260016309   -8.76191089546457   -8.07299564961523
C           1.22548895642498   -8.43356589815710   -7.52251519585411
C           2.42688719845747   -8.47211632964057   -8.39881248321850
O           2.40003851115229   -8.92579611273318   -9.52056333954220
C           3.65947739626185   -7.94456791862704   -7.78466370406731
C           3.75045796372895   -7.57562391650099   -6.50291678709393
C           2.62715707059714   -7.64244882233958   -5.55214393852307
O           2.74338326116186   -7.34861250500765   -4.38174866500937
C           1.33636510524258   -8.08485764454863   -6.13891625170266
N           0.29765441384689   -8.13999242645072   -5.33370488421436
C          -2.30618020267290   -9.12630799815555   -7.63597989219172
S          -3.33536209569208   -9.12107491831220   -6.23193858281175
C          -2.78166281985314   -9.41337460732009   -8.92890884782277
C          -2.06967153098341   -9.27943331062563  -10.11712788735906
C          -2.84702644909150   -9.61621518568979  -11.21739300147227
C          -4.14999481483556  -10.03126653156724  -10.87050416008874
S          -4.42722785056881   -9.97639993286018   -9.18773631499670
C          -4.85010111565980  -10.37509775918699  -12.04935125237979
C          -3.98956074461592  -10.17474238039073  -13.15270828194253
C          -2.71613657889016   -9.66928160509151  -12.66827825796231
C          -1.64898637042913   -9.26774024612290  -13.41427901886152
C          -0.50118638114798   -8.66806834082601  -12.84903803844049
N           0.41923787295278   -8.13441675151412  -12.42374761132780
C          -1.63679523355998   -9.36875252797793  -14.82306649144652
N          -1.61364186243191   -9.45345303180042  -15.96594581974627
C          -4.59904471015883  -10.47844742502615  -14.36721660203190
C          -5.90189853977376  -10.90562353217762  -14.18218977996662
S          -6.39500484643428  -10.93595445862868  -12.50308853189030
C          -6.85200348936464  -11.29940655523695  -15.16609393027588
N          -8.05003878369376  -11.66851620721368  -14.75771670055331
N          -9.00796414813303  -12.04706330695325  -15.57583711539797
C          -8.85941164249377  -12.08936059548876  -16.86639823856132
C          -7.62255659923832  -11.71932881120403  -17.45121653254006
C          -6.56499926756411  -11.30528368468980  -16.56594071666271
N          -5.51929399764162  -11.01031789523622  -17.30946310857475
O          -5.89575929751456  -11.22433671406039  -18.56628555923067
N          -7.14827437174773  -11.64853866309418  -18.68084278948182
H           0.43624377861491   -5.46673290525956    6.89104256527810
H          -3.67319841888578   -7.45246622616239    2.60318030900939
H          -4.29867200656184   -8.85647936051973   -3.41932601589717
H           4.51376504867248   -7.89700624344555   -8.44626615337025
H           4.68059036637202   -7.21402428721083   -6.08562370236362
H          -1.04379697205684   -8.95699060965836  -10.13190896339615
H          -4.14773757658993  -10.40402943233754  -15.34062550070043
H          -9.70263963189292  -12.41181210043673  -17.45540632498168
