71
 SCF done       -168.940135132141          0.000559152584
C          -6.82244690487327   -3.82311757077087    4.92219296275051
N          -7.04915348570649   -3.64362034476225    3.65491915899088
N          -6.31963868623583   -4.19898669819321    2.71178186850002
C          -5.29524472437166   -4.99133947123525    2.96010691951812
C          -4.94713926851293   -5.26782338615887    4.31847968291022
C          -5.75056760984293   -4.65010714557632    5.34144756731955
N          -5.25786087260601   -5.03217876859971    6.50469851977859
O          -4.22999543062711   -5.82431729108840    6.22441193023466
N          -4.02079805306342   -5.98322477555496    4.92132600128793
C          -4.57944120322726   -5.52924624954881    1.85400923090081
C          -3.48640767261469   -6.37819621932294    1.87056713637536
C          -3.05906685415870   -6.67541874749239    0.57983301536759
C          -3.84107465694251   -6.04093699853330   -0.41243443123484
S          -5.09552517646084   -5.08919100885875    0.24016203580974
C          -3.32561488645432   -6.38858816944931   -1.68314143135193
C          -2.21772600076610   -7.24283600865332   -1.49907813353946
C          -2.01899500019932   -7.45380424694391   -0.07209612591121
C          -1.06152121318623   -8.21850493779058    0.52494683643697
C          -0.09498375093353   -8.93616760239885   -0.21309127974608
N           0.69711679482845   -9.52493456940179   -0.79573892637907
C          -0.96724038178728   -8.35055502167229    1.92753146187010
N          -0.88076484450319   -8.46724576982531    3.06464257899909
C          -1.63004237481011   -7.62881816031411   -2.69574537364701
C          -2.27644213561519   -7.07726968759304   -3.79710930826106
S          -3.64049153893863   -6.06996192786211   -3.32961905833127
C          -1.95903412090662   -7.21706749273102   -5.17662199822506
C          -0.87357449808836   -7.97255220104055   -5.68398601213689
C          -0.59557223630653   -8.03292619147599   -7.09147939570475
N           0.45397000557744   -8.75734893565891   -7.53101389505364
C           1.19801232546793   -9.39323936632124   -6.68698652676972
C           0.92102362400653   -9.33666858134896   -5.29441460985042
N          -0.07334334424591   -8.65084447386420   -4.83433878686813
F           1.67961482056729   -9.99049300943919   -4.42571418237679
F           2.21959848355435  -10.09520231785209   -7.16110986724697
C          -1.36703757703642   -7.36302816581112   -8.06834865339816
C          -2.46544731480813   -6.62747121961178   -7.56737539498444
C          -2.74246662409762   -6.56289125778033   -6.15484889939961
N          -3.81550983161615   -5.81293930960381   -5.89855992726707
S          -4.41519559441833   -5.25080810801439   -7.27730230692829
N          -3.35344566106778   -5.92020818163599   -8.26883307435134
C          -1.04367887675593   -7.42278463902755   -9.44976291783025
C          -1.73635392001225   -6.80288990581553  -10.48501764522652
C          -1.15005212349155   -7.04341675754809  -11.71829594964756
C           0.00177096101518   -7.85398955025764  -11.62753047580080
S           0.35140704207206   -8.31943947170527  -10.02032930218949
C           0.52324797100930   -8.03142797980418  -12.93186128640431
C          -0.29973492340185   -7.33395008311729  -13.84687452744900
C          -1.37570973024707   -6.69212586521578  -13.11201334444323
C          -2.38331358312625   -5.92085111187967  -13.61190054466456
C          -2.50871234232140   -5.63758528104671  -14.98903855078993
N          -2.62230497071491   -5.39947650863686  -16.10454241579341
C          -3.37237306269835   -5.34978995376451  -12.78257113055150
N          -4.17951196828102   -4.88110221306650  -12.11640140796164
C           0.13995098387246   -7.45061483418319  -15.16182203995224
C           1.28388929235112   -8.22589176137752  -15.24085309268144
S           1.82996540343722   -8.82197305510731  -13.68801254118313
C           2.03194910790740   -8.57240940837662  -16.40104867285001
N           3.10932829615579   -9.31707919354878  -16.24919191256444
N           3.87384479836522   -9.69486753556086  -17.25061234118260
C           3.63564153831977   -9.36646498815409  -18.48547871441506
C           2.50874749967220   -8.56760650568094  -18.80284108974059
C           1.66344983430744   -8.14764691117063  -17.71531887626799
N           0.68804310321055   -7.42718161544078  -18.22806857848904
O           0.90773902909494   -7.39903583610890  -19.53906944491030
N           1.98963219462856   -8.07262413210553  -19.91074975806143
H          -7.47381439457269   -3.32415625465426    5.62127611792380
H          -3.04868787738636   -6.73963911496455    2.78412344828290
H          -0.77630836328390   -8.27180851023361   -2.79687391710518
H          -2.61711820254345   -6.21358426621414  -10.30889470896991
H          -0.32190226497060   -7.01008109051947  -16.02755763242546
H           4.32010302303846   -9.72342607590148  -19.23786605469740
