53
 SCF done       -124.718719025404          0.000631143384
N           2.75527467265474   10.87704822240610    0.76497094361698
C           3.81654537410453   10.55740886599687    1.06069417980543
C           5.10687066217514   10.16258275801668    1.41764685456132
S           6.13948839032933    9.31521479970979    0.30517198013475
C           7.41789297034538    9.22084211333987    1.47983025904718
C           8.61466719836223    8.58026175857119    1.21195390738296
C           9.66189080099174    7.99625351432774    1.01713794705325
C          10.81327997806852    7.26525212591755    0.79424004574780
C          11.84192391493609    7.03691742533856    1.68284169810207
C          12.79219458444082    6.16250613052843    1.15255102111840
S          14.23264135971715    5.41771999523017    1.75192840074030
C          14.39987076662618    4.50293279767575    0.26725638901720
C          15.41780413920263    3.49967164231469    0.16222925483295
C          15.55123275004226    2.64955060389996   -0.92777958717129
C          16.42984950652184    1.57117059910081   -0.93052057682453
C          17.24691905041051    1.24756972488192    0.14497780931423
C          18.00532597547424    0.03258488409774    0.18604167964968
C          18.77020484841514   -0.44650310008625    1.22488731341290
C          19.24613562560217   -1.73514215131263    0.97050236483461
S          20.15692865932655   -2.88770527978059    1.87706117423077
C          19.98004818361818   -4.05967519255406    0.57617649654732
C          20.46601545349448   -5.34451185457510    0.73054287674624
C          20.85644568765993   -6.47893001202520    0.92090748817938
C          21.26175879779808   -7.78602792669320    1.12523268321084
S          20.99897950663285   -9.02811042171532   -0.06370374050317
C          21.71350722858766  -10.23647187420408    0.96131509043165
C          21.80997179076964  -11.56986075219557    0.55955658939639
N          21.88310673259394  -12.66494835793912    0.22603777256739
C          22.13043359956912   -9.68612259323102    2.15582738842078
F          22.71154316716575  -10.39045130738713    3.12398610456875
C          21.87674592051174   -8.30810765921545    2.24805154894654
F          22.19230985939532   -7.57059143917442    3.31540594674618
C          19.27588699859113   -3.56337772599586   -0.50096088257600
C          18.85937288169382   -2.25192620725623   -0.27204021010240
S          17.90264494748909   -1.11222018658254   -1.14642566045181
C          17.21542966974032    2.14820243970521    1.24346657502434
N          17.93621972920109    2.10809820201077    2.36354620740788
S          17.51795796042081    3.33851302321909    3.30903586169799
N          16.39729648956956    3.98290829271793    2.35573566632549
C          16.30557197632211    3.26126739903872    1.24217459811608
C          13.40889774016847    4.79531133961073   -0.64732519611044
C          12.49947025961179    5.72612972210102   -0.14546363315874
S          11.03040737323726    6.41784556667528   -0.73438356596985
C           7.03825293752070    9.82557570048793    2.66399007767532
F           7.83368043028403    9.89083397150104    3.73544299061485
C           5.73854291673389   10.35442808752195    2.62930919826811
F           5.17157548382569   10.97471987792867    3.66160072948611
H          11.87794139335385    7.47158710492038    2.66455171074046
H          14.92739153193266    2.79931708992867   -1.79426670385785
H          16.44805275125038    0.92827485970150   -1.79882624960853
H          18.94552537450624    0.11444757373608    2.12328829793817
H          19.06920553300942   -4.13555241430130   -1.38646160704075
H          13.33167846647337    4.34703824373657   -1.61988750842623
