45
 SCF done       -110.687634906930          0.000923512529
N           4.34197952264642    7.32076417036558    6.12874784575252
C           5.36091458847336    6.92295892936762    5.78378438177901
C           6.59991281544781    6.43863864539459    5.35750334689584
S           6.72803636148091    5.26635934928307    4.08270599304495
C           8.46277288973344    5.24729080916245    4.20197322336688
C           9.24775645618317    4.45698426177673    3.37844348202426
C           9.92260356547458    3.76927282806591    2.63917208797581
C          10.71344638941281    3.01455682745668    1.78854528503521
C          10.25570427003534    2.21486086893081    0.76254317100165
C          11.25675334844528    1.57722481576999    0.01785162307058
C          12.54009409348257    1.85416338845077    0.42976566608993
C          13.79958223328214    1.34224147276652   -0.04250966412749
N          14.76884068521056    1.24397609011698    0.83578420627964
O          15.85161676116996    0.72618292339378    0.21314556697960
C          15.56842451561638    0.49063196477509   -1.07830065551453
C          16.60343623450799   -0.04012305695430   -1.89517079224600
C          17.88929957882148   -0.25717102701806   -1.42250623866419
C          18.79039120273260   -0.76431535624843   -2.35331464102384
C          18.25479920940380   -0.97808314487035   -3.60795838692375
C          18.95173913736920   -1.45207098323270   -4.71213882454813
C          19.53836626236592   -1.84053726095097   -5.70119857115581
C          20.22002186481171   -2.28374293442192   -6.82895509445581
S          20.33561877819017   -3.97025957354613   -7.23259898001800
C          21.26306751356739   -3.62071495360008   -8.65871759675032
C          21.71589310630605   -4.63665181286940   -9.50424833152012
N          22.08227249470563   -5.47482739421694  -10.19568872562196
C          21.46176450837910   -2.26395412480136   -8.79897372137003
F          22.14068127075009   -1.72013850545548   -9.80566267777268
C          20.87345978562188   -1.51153644586134   -7.76621344036002
F          20.94154769692349   -0.18049089297292   -7.69788334646927
Se         16.43543067532976   -0.52232157523022   -3.69940731391439
C          14.24824642318899    0.88581922509370   -1.32264971543347
C          13.61189373115887    0.91362487695118   -2.62749056497241
O          14.06161286237067    0.31073142634900   -3.58032683566920
O          12.51499733449271    1.66104488775006   -2.77592749220529
Se         12.59403323362342    2.98469830193618    1.91749448081842
C           8.89415080329477    6.11323280049079    5.18887273181177
F          10.18211996930898    6.29294517973296    5.48800294192518
C           7.84544519771999    6.78456525324121    5.83959638366486
F           8.03498497507624    7.66473439216111    6.81846279145566
H           9.20622718566005    2.09540369173233    0.55494916692078
H          11.02108715549629    0.88817615841845   -0.77710869123520
H          18.15759926349921   -0.03647349556272   -0.40313329609897
H          19.82097873722357   -0.97349624788553   -2.12176489519537
H          12.26461531201313    2.13936524677939   -1.97047588262857
