111
 SCF done       -227.093308801486          0.000337232051
C          -1.82316961140453    7.89932076467017    1.54296067305505
C          -2.98444872190742    8.55965164645534    1.94818345736791
N          -3.93617663382781    9.10623444039446    2.28201698325043
C          -1.72954497486558    6.79441396180237    0.72160507424948
F          -2.78618723421810    6.18720160104759    0.18635599021811
C          -0.40641637467789    6.37615024587540    0.50790119854725
F          -0.07774559446142    5.32833445490722   -0.25237298667068
C           0.52904452055613    7.15551547232509    1.16255012854491
S          -0.24939379032356    8.42664666507678    2.05807007680247
C           1.90558855986788    7.00987483903865    1.14938666447348
C           3.11138304085710    6.87120239302381    1.11876042493737
C           4.49039839198689    6.75236584834861    1.10350239032730
C           5.24571076229927    5.84067033880986    0.41767678313420
C           6.63515859461173    6.00903908187684    0.60710746249852
C           7.68245306205211    5.23329067558145    0.05991701649320
C           7.42983269000957    4.03920049377201   -0.71667349084346
C           6.50599542024620    3.05509575288708   -0.48943778971172
C           6.59220307550808    1.98871414987472   -1.40487792273175
C           7.56966723340825    2.15238665216099   -2.33956737460913
S           8.41416676787126    3.64395099764300   -2.10077585668742
C           7.96692974916383    1.24541704555890   -3.44534081009789
C           8.97344027792578    5.66202704207777    0.33486027818907
C           9.26880641552177    6.76898924963721    1.17022241413452
C           8.22412068928765    7.51180668236123    1.76996200779021
C           6.93018972052996    7.11710183825489    1.44275081131000
S           5.47198939062816    7.87962795879564    2.02242847498672
C           8.47228988227659    8.60285386701858    2.68441994046340
C           7.77378420333638    9.77265915427816    2.82018760194270
C           8.25785077881612   10.59708989954382    3.85248884126079
C           9.31519830099729   10.06261509016247    4.52442707809651
S           9.74819910280951    8.51814057224413    3.87239069684662
C          10.07135081702813   10.63650553840147    5.66738294656544
C          10.65620499818455    6.99007552026323    1.26477475744729
C          11.40954700214564    6.07856281290152    0.56193306009940
S          10.42631934029772    4.89907786943259   -0.26121123607793
C          12.82719421243979    6.04158362545092    0.44834837121770
C          13.45464626280055    5.04479044754197   -0.33054915844818
C          14.88461147361435    4.95898223642066   -0.51540187277049
N          15.37911738229059    3.96961487866750   -1.27219517127432
C          14.57043902908342    3.10704461116634   -1.84291869113458
C          13.15365484334211    3.19939237111085   -1.67041637801047
N          12.65414323242774    4.15168187468051   -0.92123393396612
C          12.27024400906477    2.28518120676208   -2.29270967314951
N          11.57422008700432    1.53751326491992   -2.81223457497958
C          15.13585954105686    2.07959605216369   -2.63503854433453
N          15.57490678539266    1.24478152610746   -3.28654954545934
C          15.75495871898233    5.89797118683749    0.08910906488157
C          15.12586988862576    6.88264082976147    0.88340526603522
C          13.69563702344620    6.96496518042798    1.06756302879610
N          13.36124600319280    7.98504483226656    1.85853719045208
S          14.69280662555263    8.75523365333905    2.32312877800080
N          15.76415866225131    7.84459907946579    1.54808596271728
C          17.17125414062966    5.89556550563918   -0.06461213510684
C          17.94069185402966    5.02577609086733   -0.80026764742665
C          19.32007512610771    5.29006694405366   -0.74216196714270
C          20.35601321925810    4.60110697477926   -1.41731062843214
C          20.11381105492324    3.40441628905396   -2.18657063043298
C          20.72639232619125    2.99919488160258   -3.34423383526335
C          20.27230244939822    1.75341321440786   -3.81034646154411
C          19.32675300213815    1.18163981395494   -3.01088823171289
S          18.96481220064270    2.19777194431737   -1.65922261880133
C          18.61705639514962   -0.10789603594166   -3.18812702761929
C          21.63232428128965    5.13966155813039   -1.27950989993855
C          21.91801104183688    6.28756750336031   -0.49626792796910
C          20.88068822307301    6.96248354350068    0.18857926397021
C          19.60464567345834    6.43274675429477    0.04932198339545
S          18.14801047187245    7.10549199079114    0.73714901589764
C          21.10775080795527    8.15357972195488    0.97885627457456
C          20.50459772228545    8.50863826561663    2.15361156045444
C          20.90887125178383    9.77000552480662    2.63156506331706
C          21.80658284752182   10.39665634878004    1.82316039921589
S          22.18528457118846    9.41795693174297    0.44473855977297
C          22.44110436422110   11.72875936052292    1.99682003389080
C          23.30053550184520    6.57543774009759   -0.46834758006225
C          24.05274179323390    5.70400625643720   -1.20787888539529
S          23.08118490672642    4.46624371217394   -1.97849511009816
C          25.42521970266899    5.73527504055042   -1.38769330132727
C          26.62684354534480    5.76217889225368   -1.55816114693045
C          27.99829742873120    5.82736518646991   -1.73646910673748
C          28.87272756574104    6.73053566411443   -1.16103947129601
C          30.20849094578667    6.53838984154601   -1.54774936649141
C          30.37270783771390    5.48569745959338   -2.42469378839327
S          28.85062403078575    4.72273588734366   -2.77332629302301
C          31.56451767355405    5.03747724602792   -2.99718158477828
N          32.54206881188402    4.66709949210492   -3.46949465677507
F          31.21393916591012    7.29487974510267   -1.11323685563175
F          28.47931630540855    7.69027902851830   -0.31936877988624
H           4.81242145435982    5.09273003154716   -0.22060170453624
H           5.82300767815346    3.06632379363786    0.34157502998654
H           5.95442165943740    1.12345397363355   -1.36457174377031
H           7.41128122980640    0.31296138115320   -3.38280962384775
H           9.03411883300744    1.03235701855507   -3.39154833264907
H           7.76931368364958    1.70792610449519   -4.41246557661884
H           6.96433445747034   10.05744753828387    2.17273582431534
H           7.83307749810206   11.55609460364943    4.09023729337789
H           9.67044491553376   11.61377557314135    5.92495750044725
H          11.12653859909787   10.74263626860121    5.41664041756169
H          10.00117246313631    9.98707937001283    6.53984146425716
H          11.11466620647858    7.79350315582790    1.81013198451161
H          17.49965286175311    4.23819479742663   -1.37892373198142
H          21.44689381098213    3.59680838328178   -3.87318124537386
H          20.63513870284445    1.29202058986797   -4.71141537856958
H          19.01121766164731   -0.63567432884938   -4.05283961294985
H          17.55065596070617    0.06907583312426   -3.33532582083495
H          18.72986197169768   -0.73628429605207   -2.30522001440050
H          19.81858241675300    7.87048115023515    2.67980089889369
H          20.54321634410194   10.19934359861593    3.54737813388853
H          22.11356162377833   12.17672254739356    2.93187194622912
H          22.17210073229034   12.39337653891156    1.17576335393174
H          23.52708401448249   11.64015531021515    2.00936345079475
H          23.74269334840177    7.38481927162457    0.08218238738618
