75
 SCF done       -178.566283044577          0.000408046927
C          -0.67449186984412    1.07333606347131    8.33092541813909
C          -1.33922719061624    0.93403434271183    9.55136664708841
N          -1.88152249727533    0.82271999873957   10.55577518165482
C          -1.21778778945394    0.98181789361831    7.06554846159123
F          -2.50451173948030    0.73593451851917    6.83656986425175
C          -0.27344146541221    1.17677402584471    6.04453972915767
F          -0.57223876351731    1.13570602268786    4.74535487364450
C           1.00310498292343    1.42013055489098    6.51779657206133
S           1.02896687863743    1.40406670894531    8.25631667975004
C           2.14192575816145    1.66617780411811    5.77112863487681
C           3.12417388802234    1.89548258507612    5.09410152536372
C           4.24870880188657    2.19254595338235    4.34820798760825
C           4.34392280501497    2.27473440644156    2.97041075170757
C           5.62537717298953    2.64723335622643    2.56754379810575
C           6.50652990287492    2.84368357679290    3.64927177853528
S           5.76705944790592    2.56622115535980    5.16058833050126
C           7.76348671880477    3.26134034759090    3.14765927892241
C           7.67459883818275    3.33386845726932    1.74118886043666
C           6.33572027152479    2.93529561561570    1.33223864911926
C           5.85330904484780    2.85447098014604    0.05959646713401
C           4.53041100269604    2.45058329251640   -0.22087251763230
N           3.45640048245476    2.12345917917754   -0.45208712317349
C           6.65061826382765    3.16790518106737   -1.06204291184908
N           7.29962001687297    3.42316101541755   -1.97186844439435
C           8.84740590283051    3.78728956615430    1.15176683383155
C           9.82323227164751    4.05797950886028    2.10339069956881
S           9.29290496460822    3.72993173643821    3.74763006861599
C          11.10770737830475    4.59208493201219    1.91013701883558
C          12.02489828342434    4.85374651388290    2.93372351095894
C          13.22781334946418    5.47837755442687    2.46626938142260
N          14.20687112913771    5.81245192477339    3.30533008087189
C          14.01867332522868    5.53495730658006    4.57887538108535
C          15.11072740472562    5.89906858457228    5.51475515369420
O          16.12901492184889    6.44769272130910    5.14778381958957
C          14.86702749840021    5.54562770027390    6.92333912156332
C          13.74446555641047    4.96402161263344    7.35947117592692
C          12.61655817864222    4.60448173431498    6.48375807632896
O          11.60018974450033    4.09428001093829    6.90711915260659
C          12.81640532467333    4.91118850880678    5.04604819964898
N          11.84012816206746    4.58416717469123    4.22494137006289
C          13.23252016029667    5.69617671325467    1.08426529889853
S          11.75722430342254    5.10205648764442    0.37890968848373
C          14.25116971968070    6.35963000724726    0.38096587556752
C          14.32208941069422    6.63696243786789   -0.97885019146700
C          15.45380421048449    7.38000410986033   -1.28766008408031
C          16.24440436831905    7.66701239482298   -0.15451668088157
S          15.61006854218470    7.00863973968774    1.28887946428389
C          17.33672087264277    8.46790787846757   -0.56890044511288
C          17.24286131164698    8.68474566767974   -1.95794828380318
C          16.06353760508187    7.99651413402410   -2.45667132771663
C          15.61705796530970    7.94148388912837   -3.74373817378184
C          14.44688349375331    7.23643189674167   -4.09806811709825
N          13.49600874698644    6.66343957686589   -4.38369302189893
C          16.29348381525122    8.58147707965331   -4.80424200414352
N          16.84015013863494    9.10150748115516   -5.66719761128690
C          18.25878963708734    9.50179964004931   -2.45108579276961
C          19.11719004536391    9.90798125030115   -1.44488402194729
S          18.67360070375937    9.26090794056415    0.13278508213100
C          20.20339990414115   10.75359202865138   -1.56452939230529
C          21.14296613498985   11.51914780704880   -1.64758737582349
C          22.19606809609446   12.40856475916633   -1.76961541669996
C          22.62770395811492   13.04135103687781   -2.92121811042373
C          23.71539906509011   13.90367684218551   -2.70816932044026
C          24.12823118943001   13.94010154877381   -1.39173412947165
S          23.15803803627909   12.89126546994165   -0.40407833090731
C          25.17172722001909   14.69495936088876   -0.85129279909809
N          26.02728603877475   15.31360812004366   -0.40320106219026
F          24.28786036729744   14.61427369351711   -3.67556802659711
F          22.06049863906319   12.84934976665137   -4.11296354389421
H           3.51187559787939    2.07881523313206    2.31872692362282
H           9.00801594642842    3.93181085090390    0.09838461864019
H          15.67090597022356    5.79583536137804    7.60243320924725
H          13.60468921443107    4.72528144890053    8.40516413173946
H          13.57209647633132    6.31167525910917   -1.67740156206681
H          18.38167670885599    9.80377297162940   -3.47532699620904
