75
 SCF done       -181.018352449297          0.000483802556
C           6.59764726955715   -4.92831042683825   10.65427833741893
C           6.79980321189048   -5.94914849288058   11.58623749308633
N           6.97153586606284   -6.78679252991134   12.35036179781262
C           5.39184478224930   -4.40960704187172   10.22781785974278
F           4.21386769579980   -4.83489973859814   10.67237789301418
C           5.53818557936425   -3.38688605463588    9.27603958464729
F           4.51340338036383   -2.73889762706100    8.72220022966326
C           6.85772093133028   -3.11335962673448    8.96524736149781
S           7.93065280244785   -4.14010400040430    9.86858670720394
C           7.32636298377705   -2.17435444959126    8.06272035368275
C           7.70576007995618   -1.34932360459031    7.25621892870418
C           8.16275168882833   -0.43403020312144    6.32690073545809
C           7.40451851082800    0.38937009024136    5.51637269311867
C           8.20651348965504    1.17059788461232    4.68393140722058
C           9.58388788372842    0.92801276941542    4.86071291880745
S           9.89487670309749   -0.25000844885875    6.05190923702076
C          10.31178815398405    1.73239591778428    3.94378180559074
C           9.39049711003598    2.52009326688416    3.23045945397794
C           8.04116283123245    2.11955911645947    3.59682213425563
C           6.90068948969204    2.39574091802511    2.89463712544313
C           5.63661519135913    1.86817354248170    3.22903098784765
N           4.59749425317215    1.44259672608502    3.46390051622056
C           6.92688157880910    3.12100256827697    1.68530844843128
N           6.95051134163008    3.64219831412695    0.66255091287192
C          10.00155860434556    3.34350808024004    2.29080890820414
C          11.36753143551036    3.11696853818211    2.21595519062544
S          11.91398999391822    1.92801458944062    3.36874764451176
C          12.10606734597718    3.50341952266236    1.04709078060754
C          12.66142439894945    2.48224406093234    0.24003001695387
C          12.40395960928946    2.49334361403748   -1.18545442392919
N          12.69641658192231    1.42314701486979   -1.91502578338662
C          13.27475712243333    0.38350145903030   -1.34933144716931
C          13.55346030167024    0.38370012648294    0.05160761680488
N          13.22435262121259    1.41031365495877    0.80100024856793
C          14.18599696264245   -0.73109996898472    0.65826056833077
N          14.68528020353569   -1.64881271719351    1.12663616225035
C          13.61890471557432   -0.73423018632118   -2.14727700771864
N          13.90217559964425   -1.65897445848511   -2.76082049945977
C          11.65974934893979    3.55325857364794   -1.77796254829197
C          11.69342650265808    4.77842110652648   -1.05716102736636
C          11.83864966858344    4.72105821736650    0.38470207038350
N          11.58847351623318    5.89737378915494    0.94403688684287
S          11.25438540367399    6.97740404585019   -0.20112223024505
N          11.34850019406316    5.98628960222163   -1.46806281112183
C          10.52791689409244    3.27632922457668   -2.58219655796224
C           9.57833277933008    4.20668840519283   -3.00238305669573
C           8.30376658247170    3.66281561486747   -3.05146950041732
C           8.27554387545121    2.29345892172269   -2.70072288386788
S           9.83701126730539    1.64901009431573   -2.45159670882084
C           6.94931111526805    1.94159223121257   -2.37509063115235
C           6.12625821847554    3.07589901125197   -2.53691503398674
C           6.93641102211634    4.16876549575466   -3.04995891583279
C           6.52244531891809    5.42319760823724   -3.38108734213193
C           7.42273942475847    6.42470560875568   -3.80562578899642
N           8.14897030268446    7.24636774657237   -4.13888642829497
C           5.16426921034074    5.80610909500226   -3.32432682464767
N           4.06288642189635    6.12011434182350   -3.28635998437276
C           4.87270764270417    2.92456393991320   -1.94898078228948
C           4.74867641294059    1.69736266757142   -1.32131553994815
S           6.16849571530756    0.67632381899794   -1.53334871582153
C           3.76334854693573    1.30645565322767   -0.43599323157262
C           3.02055155345900    1.00284491917930    0.47666800804661
C           2.19925857168069    0.72780973648142    1.55481812573294
C           1.28658193399413    1.58467665068748    2.14326197581198
C           0.65720568684323    1.03476913095818    3.27067360722643
C           1.08191947802126   -0.24783076349690    3.55466749402619
S           2.27683920541351   -0.77748569301761    2.41537100984071
C           0.64711882600857   -1.06939494578075    4.59784355392218
N           0.28613896161033   -1.74632991146686    5.45019562968730
F          -0.25609794603356    1.68120397959096    3.98940013746923
F           1.03759731720165    2.81046663643201    1.68166302341702
H           6.33011254918802    0.40517362585863    5.54767513609171
H           9.49138263271728    4.02689581229850    1.63692120192945
H           9.82572118130793    5.24282638374895   -3.14803300743197
H           4.10235635823882    3.67313742516247   -1.91286120697284
