69
 SCF done       -137.035272086675          0.000188293578
C          11.38986672711604    7.67919025321297   -7.65978880356300
C          11.51846736537664    7.28717019545592   -6.34808799748657
N          11.67048191230743    8.25928159247431   -5.32925875048548
O          11.84588142458655    9.41301806341761   -5.67615527060679
O          11.61900923677931    7.90788776542395   -4.16483480209908
C          11.50560292472142    5.87310343014962   -6.15813310825556
C          11.79686837607927    5.20704490737633   -4.86112105318437
C          11.33055941244170    5.21537339103237   -7.35793350023309
S          11.23596770581602    6.35130231691976   -8.69971832326019
C          11.24821677363833    3.83035642786008   -7.68437185888433
C          10.64809162609326    2.82424202614858   -6.98395171567158
C          10.63400171951889    1.45368103258255   -7.37557890914619
C           9.91797542216742    0.64152392872102   -6.55535345580419
C           9.30975335268236    1.31347512360864   -5.46960059600779
S           9.68287281488015    3.02370367843306   -5.52892136046800
C           8.53219463076051    0.78507274225163   -4.45832086102301
C           8.13910441213793   -0.55787812437540   -4.25841822734881
C           7.38499963635900   -0.74489919390984   -3.14041077683828
C           7.13035166890186    0.43768481683514   -2.39888785356394
S           7.88835681444191    1.80145414419769   -3.19256347144694
C           6.47424184162510    0.48173484703990   -1.18933148721094
C           6.19145715089060    1.60559439127777   -0.39944665202944
C           6.11431610952402    2.96358821282570   -0.70280321109899
F           6.13775913667807    3.44931281540279   -1.95062217348206
C           5.90014135136462    3.79145125094591    0.39267630454863
F           5.69538030469992    5.10674639058726    0.24628462260603
C           5.79486999437726    3.12823607822362    1.61407269375679
S           5.89476375882214    1.40509331194400    1.31711374571464
C           5.66577467079970    3.62241458991403    2.92119634646731
C           6.09519227110555    4.85083691218731    3.37507830088422
C           5.93518497689728    5.35563285025086    4.68992671647972
C           6.56246823707246    6.54576279802647    4.91446253892125
C           7.26604396738984    7.03433369361656    3.79337724089524
S           7.07152410531907    5.95720841224088    2.43546905732796
C           8.04863212012882    8.16956585703320    3.66896210411146
C           8.32288320048006    9.17937561328331    4.61568291131912
C           9.16246613801308   10.14760829549834    4.15204577158962
C           9.60437206443022    9.95154618527188    2.81818338207537
S           8.89161360155578    8.49040167188978    2.16984391060965
C          10.46689498877179   10.77653158375234    2.13708716142492
C          10.94744489895622   10.60663592983017    0.83053827521314
C          11.84156959538028   11.42847376421803    0.11343504055548
N          12.39992933272313   12.61334939290215    0.62645934291470
O          11.97654835806498   13.06251859685453    1.68449739955919
O          13.29412715213485   13.15113631264528   -0.00635236199599
C          12.13865757712616   10.93740275805923   -1.19281706161342
C          13.02521382056955   11.58316379842138   -2.19824820669041
C          11.48205397896619    9.77096767092093   -1.44671901291153
S          10.50654155701610    9.23340792443306   -0.14367935966987
H          11.37314316970104    8.68667720484116   -8.02589595338342
H          12.55026173656174    5.76750703636852   -4.31208165239038
H          12.15176642106422    4.19386275423024   -5.02735604100072
H          10.90436255104629    5.17095039434588   -4.23676464665270
H          11.64462464264461    3.56204898518000   -8.65604174102316
H          11.16385752343694    1.12251339760397   -8.25106415949558
H           9.80791657875678   -0.41851865837240   -6.69792774568741
H           8.42494507240721   -1.34336009653443   -4.93458568996182
H           7.00053583697613   -1.69666783801128   -2.81850269992160
H           6.20696104729401   -0.47260489367494   -0.75388535767822
H           5.26588157981414    2.93733776551158    3.65683224357233
H           5.36051013111434    4.82231121661454    5.42648149374179
H           6.54781737225545    7.07146302387883    5.85230365197766
H           7.89500962424500    9.16752456905699    5.60208196610123
H           9.48560448453936   10.99983358628816    4.72299816181680
H          10.81630751433420   11.65508034960379    2.66283273153512
H          14.05671506951564   11.58367183586085   -1.85019678415459
H          12.74037333112389   12.62235230244261   -2.34941701498554
H          12.96087682976070   11.04928595873924   -3.14269111982774
H          11.52071926592849    9.18043067853960   -2.34160228749169
