79
 SCF done       -173.983490147658          0.000375463227
C           1.78778001818935   -0.80025574818721   -4.06082347525050
C           3.09044213717947   -0.44746911788753   -3.80329357951189
N           3.67579218197096    0.63480067553810   -4.52814242298511
O           3.06934042955061    1.02514678765092   -5.50468483853620
O           4.72189802726018    1.10811822998204   -4.13707349130906
C           3.71511307842628   -1.24468031157588   -2.80088642421109
C           5.12513150987666   -1.11514507600729   -2.34416655225651
C           2.83692971130427   -2.19607626587859   -2.31821124746022
S           1.26983322197562   -2.09117651931899   -3.09539299214198
C           3.02387225414824   -3.19220426502562   -1.31642565150739
C           2.07677091632495   -4.12217743169782   -0.92114991950008
C           2.54515457431977   -4.95340477314055    0.09332504100903
C           3.86509972191546   -4.65497307048161    0.47884432086762
S           4.52066721111987   -3.35627638412364   -0.41253524560717
C           4.25292297034397   -5.53703650621895    1.51507598243805
C           3.16893901321339   -6.39944132808282    1.78583012909046
C           2.06481032573930   -6.06330673667651    0.90160733635449
C           0.83948646112222   -6.65886441111683    0.84291976452267
C          -0.15339452954398   -6.23523804063099   -0.06563678979980
N          -0.95813586991623   -5.88851491019680   -0.80512902275745
C           0.48360947299511   -7.73456071291493    1.68434662878460
N           0.18498254659790   -8.60869045510852    2.36336863203264
C           3.44230848090622   -7.30339092183445    2.80206705342367
C           4.72535369655062   -7.13977086402596    3.31215693134367
S           5.60686989923939   -5.84589445161191    2.51224209922410
C           5.32505332375851   -7.87696033328094    4.36338206395091
C           6.64285697214806   -7.59630523544020    4.78952694887461
C           7.27357857833924   -8.30745193116790    5.87151008137760
N           8.52390250054065   -7.99289122914805    6.22606295984565
C           9.16770127157984   -7.04286530949864    5.59160391439936
C           8.53892740123002   -6.33274975268666    4.51832398384760
N           7.31328096075542   -6.62841748021152    4.15662510492708
C           9.22931207835522   -5.30426919022016    3.83122479947336
N           9.80464006682932   -4.47452789196520    3.29063546872803
C          10.49407145365330   -6.72540217803952    5.97555300051846
N          11.56767928248705   -6.44403549554760    6.25758976398730
C           6.61646324581776   -9.33544580755230    6.58483968100620
C           5.30177713845478   -9.63163688671912    6.15032721403228
C           4.66962376155165   -8.91814075731426    5.06282802427237
N           3.43511905561480   -9.36826618033960    4.83693295135461
S           3.09859141602151  -10.55096475779021    5.86486129811439
N           4.49188852563395  -10.56221429072081    6.65612343375997
C           7.25148733531184  -10.00074659637118    7.66367156250993
C           6.71612401717621  -11.01969432582215    8.44463129025405
C           7.60011458437695  -11.43640378188642    9.42829051760077
C           8.82433445563219  -10.73162395522094    9.40160047392083
S           8.87964706633178   -9.55957647415396    8.15905351812566
C           9.65131140124172  -11.22500408602088   10.43848822510174
C           8.94543479272586  -12.24014391938544   11.12194028592241
C           7.63747196826707  -12.40646375828369   10.50928753866822
C           6.65581333671517  -13.28111052334106   10.87279804727728
C           5.41834773761698  -13.34756368138010   10.19813950033373
N           4.40952507309697  -13.40852525961550    9.65658899202601
C           6.81580242144838  -14.17650294830184   11.95109545260448
N           6.94826484916701  -14.90238983760602   12.82889279793798
C           9.67795281849191  -12.78033030834883   12.16506323402237
C          10.93410907626770  -12.18848337710572   12.29691506026464
S          11.20280804048233  -10.94173818591705   11.08655654723872
C          11.86386858107880  -12.57914568158081   13.29775787849045
C          13.07747873054784  -12.04754983215567   13.75211752556680
N          13.69677651979373  -10.91760680588569   13.20252119409373
O          13.29531023497419  -10.51119766709382   12.11426692810441
O          14.60387662293069  -10.38403398535094   13.80857113003372
C          13.64673536401901  -12.76565931658723   14.85424991746270
C          14.92905530261758  -12.43858552651812   15.53394279966443
C          12.87198177756527  -13.82223990810709   15.20512669345456
S          11.45000446612680  -13.97230684643880   14.25321984964294
H           1.13302256810593   -0.33332099368251   -4.77034528915777
H           5.64384654412868   -0.34909494616410   -2.91135384397203
H           5.65017201024861   -2.06343143599371   -2.45890443140477
H           5.15803523515703   -0.84144134806627   -1.28941353557648
H           1.09690255144509   -4.17738158327215   -1.36045111231752
H           2.77167071737252   -8.05251439716395    3.18082197442542
H           5.72910208101952  -11.40855051684104    8.27449999513502
H           9.33133582879000  -13.56162400978939   12.81794333971373
H          15.73805423635963  -12.35386643746937   14.81099176673985
H          15.17148453304165  -13.21213356272144   16.25780534418937
H          14.85489113185117  -11.47953523243108   16.04328274708203
H          13.05613149488367  -14.53445163178147   15.98424312594480
