79
 SCF done       -171.461643567634          0.000912021302
C           4.25689491700858    0.33917332316389    1.77776324351296
C           3.41078925235681    1.03105919565205    0.94690238946327
N           3.53775727245035    2.44623213524467    0.82113493345429
O           4.53522658934446    2.94943922766537    1.29854422281449
O           2.65696790406946    3.06279103938065    0.26077453956793
C           2.46299464135804    0.20917990971678    0.26885083855986
C           1.49222835114992    0.69570721418454   -0.74795420837575
C           2.61867682892518   -1.11058025729646    0.63526960471064
S           3.92382373100079   -1.32150831694084    1.78213338779728
C           1.87899932088358   -2.25917876424439    0.20999353587980
C           0.57942553950431   -2.32739189558446   -0.24499737900966
C           0.20398996839914   -3.63637182305048   -0.56467828714863
C           1.23028144513281   -4.56935157367635   -0.34415488158727
S           2.65220803040777   -3.83919104595039    0.25454020580290
C           0.75833921517509   -5.85573174546067   -0.70139338987087
C          -0.57358708169964   -5.73853776812021   -1.14623142793677
C          -0.95312400155245   -4.33197962124575   -1.10197890543622
C          -2.11425240103238   -3.77184685600857   -1.54443221869714
C          -2.34277819183296   -2.38172877430115   -1.45559566574550
N          -2.51974009550457   -1.25138453175567   -1.38020756768309
C          -3.13618343517538   -4.51417387822876   -2.17675545720533
N          -3.95989615366001   -5.08137904924506   -2.73556816283408
C          -1.13990693949387   -6.95561312464011   -1.50397619640952
C          -0.23624154689144   -8.00245510537658   -1.35886368448391
S           1.32596196049773   -7.46409589525834   -0.75487012091527
C          -0.47053916825416   -9.35335207997064   -1.67532021022652
C          -1.69387981863157   -9.93034480416143   -2.04453174165195
C          -1.56943570300233  -11.32217318598264   -2.37746408157052
N          -2.61354605348159  -12.04327582338112   -2.78316686402685
C          -3.77767562436878  -11.43204479649722   -2.82815422359978
C          -4.94138992264735  -12.22225370748935   -3.30194545124412
O          -4.85227585464912  -13.38916433894096   -3.61974950351664
C          -6.21218399962052  -11.47946713114596   -3.36377460169612
C          -6.35099245830345  -10.21247956752469   -2.96016993846088
C          -5.25085553244971   -9.40908523411506   -2.39683855635382
O          -5.42598347578472   -8.31179213676934   -1.91481456921556
C          -3.91625426245810  -10.06192083096413   -2.43668217778332
N          -2.88651535124804   -9.33038101342514   -2.07054349618066
C          -0.26780634489862  -11.81660751004397   -2.24213128124298
S           0.79062167553354  -10.55357325250204   -1.70092938606483
C           0.13423876252677  -13.13029265032830   -2.53388157380682
C           1.40103434035134  -13.68629297724844   -2.40567514494798
C           1.42066519387657  -15.00710409635719   -2.83317047943457
C           0.16176612363743  -15.45385411948064   -3.29247737311409
S          -1.05125778536830  -14.25685406283359   -3.18080995482792
C           0.29238627312870  -16.79521197823590   -3.73200913184033
C           1.63387741339438  -17.19201534516759   -3.54535246946760
C           2.38185781666129  -16.08879785081128   -2.96640526788939
C           3.70187195538413  -16.07045366669180   -2.62212160577358
C           4.31484121068588  -14.92753835316650   -2.06745348441135
N           4.81462600796557  -13.99789137206384   -1.61874829455593
C           4.53645267480386  -17.19385407941646   -2.79863789940553
N           5.21236206073100  -18.10852270394983   -2.94488597766536
C           1.86525990322243  -18.48903618329488   -3.97357974924252
C           0.72140509703094  -19.08732851588188   -4.49903739186014
S          -0.66942659311679  -18.01259172158014   -4.43733238000589
C           0.71740029844529  -20.41066554661016   -5.01737487249783
C          -0.19895719070438  -21.14547134293668   -5.77943527924411
N          -1.46237544866142  -20.67442691679769   -6.15740366056453
O          -1.90571824050332  -19.68474046643046   -5.57852925266466
O          -2.07641809121399  -21.25441651122726   -7.03027581955398
C           0.27202877383771  -22.44666728149476   -6.15373838631423
C          -0.48495808845558  -23.44350385423322   -6.95796009810143
C           1.51318765028949  -22.68050978494157   -5.66042695214375
S           2.15330195821061  -21.35870753789667   -4.76784205212138
H           5.03950719979851    0.75738133809242    2.37976004066004
H           1.87621316482887    1.58195516397325   -1.24599030667261
H           0.55248522569722    0.97825079833220   -0.27362128497623
H           1.29204980416996   -0.07787632611850   -1.48539054253018
H          -0.07451381857720   -1.47858742976899   -0.30158186354490
H          -2.14503977354926   -7.11665426456991   -1.85055478428134
H          -7.05073660137815  -12.04185486947157   -3.75190722491038
H          -7.30686160776756   -9.70836274098690   -3.00574933462840
H           2.24193192298721  -13.13551600232194   -2.02346270836659
H           2.81615362584980  -18.98956202393791   -3.92927166490160
H          -1.46403818718821  -23.62874530355911   -6.51999286644008
H           0.06991361039103  -24.37673982083475   -7.00793574085724
H          -0.65199531107901  -23.06923700490973   -7.96634991470021
H           2.10293544688775  -23.56793920100439   -5.77330051634985
