61
 SCF done       -117.364904228128          0.000677325668
C          -1.36045848944906   -2.75308903349023   -0.24961279526848
C          -1.28709432181303   -1.44991017020530    0.46484685843910
C          -0.76257410325813   -1.30686190837744    1.70805584806199
S          -0.82131491188312    0.31145018479902    2.29280036929508
C          -1.57572389144911    0.86428247973055    0.84269471764676
C          -1.92178254199151    2.26062906725603    0.70163689829744
C          -2.48798947728432    2.93490208431544    1.75898131171764
C          -3.01837393077136    4.22203095763710    1.60365354066746
C          -3.01645195474660    4.86250409714622    0.38332696810758
C          -3.72723671664792    6.11399030257323    0.24001765471080
S          -4.67219502651422    6.46715585602489   -1.16777431759797
C          -5.21403725211644    7.97311756877953   -0.47751021514856
C          -6.06530808749033    8.81485143427425   -1.19305839712620
N          -6.76768775022499    9.50162886395890   -1.78777768916585
C          -4.67474483619718    8.20444040128932    0.76865689714138
C          -4.95458297429552    9.37159647163225    1.59862256203930
C          -6.24416929159577    9.76972456551135    1.82366326917962
C          -6.53673529789783   10.81718338343180    2.71833418895453
C          -5.55313843656986   11.46486699623102    3.42002312089421
C          -5.92440278820314   12.51187278226417    4.36286809556412
S          -5.23619601290114   14.11216307867945    4.22192648416987
C          -6.16930726169824   14.68283922567867    5.51682360449966
C          -6.97429995062446   13.70066865537568    6.03862145026178
N          -7.83626738362700   13.97640107529124    7.13257445052726
O          -7.75964398241410   15.08446940982748    7.63102822095596
O          -8.59729749867281   13.10846240543438    7.51053188629757
C          -6.84221968383191   12.44125027876114    5.37648730826967
C          -7.55994101531755   11.20022536297951    5.77964051779129
C          -4.17780624221397   11.14201569527237    3.17264378708113
C          -3.87232893981083   10.09507406034110    2.19461233991624
C          -2.54400250170851    9.98471194523844    1.84768381584407
Si         -1.64925782450327   10.63900509171240    3.34206301667443
C          -3.07833014761085   11.78157230571249    3.69706836102597
C          -3.83504381912494    7.12813351785679    1.17776798172534
C          -3.19174263669742    7.13248785975048    2.42625677914722
N          -2.68735862852074    7.18350263418473    3.45657534468519
C          -2.30473549669167    4.27614852229183   -0.71458108915692
C          -1.68419485781801    2.96388817688958   -0.52245496826154
C          -0.82055883642524    2.56785617876511   -1.51801344528099
Si         -1.44139423470589    3.48368718710799   -3.01134284062448
C          -1.99340639799147    4.88185124114475   -1.91002537110360
C          -1.76995101281435   -0.19639752349373   -0.03500676347438
N          -2.45924659530586   -0.07410690930040   -1.26114236814206
O          -2.37246060131963   -0.98303709371636   -2.06770013016772
O          -3.10736482765510    0.94352803419825   -1.46638577050796
H          -1.00789936484436   -3.55223597009279    0.39713119932602
H          -0.75309908529315   -2.72501614814443   -1.15251602737597
H          -2.38249785745468   -2.96298501842189   -0.55962297423977
H          -0.33837496501348   -2.07118856786921    2.32779223012744
H          -2.60763851235933    2.43655940960200    2.71007733547024
H          -3.51467393565977    4.67534583678785    2.44845085901157
H          -7.06266560498299    9.25683719165346    1.33999024279669
H          -7.56837990328817   11.10429062581238    2.85441682915388
H          -6.10455668485931   15.69915559828707    5.85143244642379
H          -7.45799958028788   11.03902979405033    6.85135796164030
H          -7.16436909752043   10.34086977025381    5.24437762093168
H          -8.62535033871676   11.29399309794267    5.57294763922996
H          -2.20417166440656    9.22706430441654    1.15916074194328
H          -3.17021710464738   12.50332076221823    4.49189982129408
H          -0.33204789030239    1.60662765118924   -1.48249768651814
H          -2.40227993994820    5.83752486153048   -2.19290972776509
