95
 SCF done       -194.440140615820          0.000370143240
C          -7.93751156923024   -6.65369132047901    9.36384092262568
C          -6.89560326541683   -5.71907339876353    9.53139963454537
C          -6.03895136594453   -5.87012959940613   10.65408286778407
C          -6.29830786968451   -6.88164318206729   11.60276642702507
C          -7.36238488691980   -7.74110371666000   11.42882810955103
C          -8.16740956167088   -7.63550709103900   10.29390054426344
C          -5.43084288819832   -7.04340863236619   12.78423494364116
O          -5.63196681349912   -7.89019570464223   13.63022908199559
N          -4.35897144367671   -6.17245324578757   12.88370619004225
C          -3.47505310779412   -6.30040186477242   14.03003733846086
C          -4.03199460671345   -5.17770869889574   11.97851195507282
O          -3.05555329879348   -4.47952055730115   12.15982957604378
C          -4.91947111251330   -5.02879256263837   10.81443436093304
C          -4.63926671550949   -4.06711604135520    9.86471928318129
C          -5.48359677451466   -3.89213466429478    8.77550241700370
C          -6.61981698743293   -4.66727991168983    8.60596100800986
C          -7.49902297890889   -4.38000848626141    7.49269343598147
C          -8.87511554137809   -4.38461791302981    7.44876325198845
C          -9.36665061260539   -4.01135472619598    6.19205245221345
C          -8.34347378178598   -3.71657410830308    5.27724282611136
S          -6.79041861946008   -3.88743931566988    5.96131103625531
C          -8.93108419791870   -3.35844855818832    4.04009119704344
C         -10.33230667661988   -3.42513676620149    4.16825934885833
C         -10.64821224700154   -3.86993599717643    5.52086830223796
C         -11.87549663853552   -4.17435128511351    6.02946254625966
C         -13.06257899972804   -4.12932994195151    5.26522687334558
N         -14.03518569807264   -4.14856154891404    4.66000290387666
C         -12.03049311603549   -4.63016682037771    7.35653391549386
N         -12.14723234109571   -5.00811038833163    8.43281431069509
C         -11.00492931352519   -3.06561330560160    3.00541197425412
C         -10.12007699554494   -2.74385877900536    1.98316675299466
S          -8.43719789624763   -2.88176643099553    2.47954757578200
C         -10.44356455941480   -2.35661436326582    0.66944415605583
C         -11.71213818602542   -2.06672790734089    0.14880197526422
C         -11.68325976140835   -1.72220311033093   -1.24897894238470
N         -12.79986762556386   -1.38623660429179   -1.89931863909708
C         -13.91552394541401   -1.37271499478233   -1.20437151145773
C         -15.15247423155203   -0.96440572295047   -1.92024707666194
O         -15.13881315341823   -0.52257217326779   -3.04778315068325
C         -16.39614136340428   -1.11890728845017   -1.14327135019222
C         -16.42184626885778   -1.43204080000563    0.15587396505517
C         -15.20915294856001   -1.65925219866899    0.96327433921257
O         -15.23988905526065   -1.77519633607233    2.16826447601325
C         -13.94355534671566   -1.71107235897967    0.18536439127023
N         -12.85598179704986   -2.05662661588416    0.83742896297301
C         -10.39189543795847   -1.74525919681639   -1.79318896108404
S          -9.24042758968841   -2.17296143377097   -0.56735904047416
C         -10.00992945689512   -1.46456409376329   -3.11822280265174
C         -10.84514800734206   -1.27543622804405   -4.21280138203056
C         -10.11886971142659   -1.02298764890981   -5.37169398751161
C          -8.72677781341700   -0.99700403115615   -5.15668588721284
S          -8.30649434781791   -1.31996778691573   -3.53652664905955
C          -8.08399586613141   -0.69124403844765   -6.37931855290675
C          -9.06027418990604   -0.52626490453755   -7.37346297028622
C         -10.36920946236324   -0.75852769206000   -6.78399680962028
C         -11.56628064257096   -0.78775764728326   -7.43482674171177
C         -11.66178007538267   -0.51142098966965   -8.81571099532632
N         -11.73265753743386   -0.28299125674402   -9.93728106173735
C         -12.77881281177145   -1.14856762656239   -6.80632091916636
N         -13.76847671891745   -1.48363127069760   -6.33630605430142
C          -8.51066520875891   -0.21925842134662   -8.62268399216710
C          -7.13483159971976   -0.14558175007345   -8.58831448444301
S          -6.50377407120982   -0.46757108829823   -6.97845264519284
C          -6.22014897569868    0.14620914061737   -9.66662970207700
C          -6.68992936212573    0.36936163526147  -10.97686429923351
C          -5.82430499269105    0.64215893532815  -12.00556918410517
C          -4.44607286400604    0.70484966541974  -11.77394844415023
C          -3.95402997498645    0.48648967078809  -10.46940861503642
C          -4.85241183119683    0.21074646354693   -9.43784149476230
C          -2.54596043752664    0.55840840872676  -10.26673026243233
C          -1.69784337999085    0.82646951527136  -11.29423237378521
C          -2.18558913115657    1.05514003729649  -12.66177713241887
O          -1.50438852934213    1.29658359996370  -13.63215009153267
N          -3.56373127443252    0.97119487130755  -12.77755113645397
C          -0.30368871960663    0.89387589504775  -11.07357975646898
N           0.82116321410111    0.94170188536175  -10.86196372631141
H          -8.54921501387055   -6.61278808734806    8.47664275049271
H          -7.54073654917200   -8.50450221215152   12.17074470176041
H          -8.97299884075385   -8.33803220697438   10.14545642138483
H          -3.83211124778529   -7.12465223163564   14.64206058098479
H          -3.48006817163333   -5.37240842053628   14.60142337136560
H          -2.45842051187106   -6.49178140076342   13.68743647817436
H          -3.76657532007669   -3.44550142098460    9.99471373483520
H          -5.26674090474297   -3.11236973631074    8.05951362126778
H          -9.49041712536389   -4.59855789805223    8.30349537028041
H         -12.07074124543354   -3.02104044240972    2.86889113834549
H         -17.30615102526637   -0.92539625640886   -1.69495140522907
H         -17.35338280237115   -1.50262594926824    0.70097997444646
H         -11.91600185809541   -1.31981834690680   -4.12439223453567
H          -9.09535009023189   -0.05366926083046   -9.50813040119865
H          -7.74737592432589    0.32357448514306  -11.17972992693226
H          -6.20162551402948    0.80954200557391  -13.00333298317829
H          -4.46126113235315    0.04591270460767   -8.44429506824870
H          -2.15550476441540    0.39457414394373   -9.27157587715406
H          -3.92543898627298    1.12596295030044  -13.71235504997243
