93
 SCF done       -196.387550195351          0.000686502319
C          -3.78483048628166    3.43457042377937    3.60717239132458
C          -2.74152234638879    2.53189882066627    3.31915059572391
C          -1.43975691188983    2.84913082872566    3.79154543162947
C          -1.24142200432091    3.99847462868533    4.58513285166386
C          -2.29983859549935    4.83154038704983    4.87935755836680
C          -3.56878644625617    4.55342800382211    4.37074741429998
C           0.09848878195346    4.33248172194091    5.10312564191559
O           0.30283826540733    5.30204689752911    5.80470195367591
N           1.12556695044492    3.47531705338174    4.74874050406265
C           2.46343355347191    3.76870510342064    5.23438559053002
C           1.00566497303439    2.34483189575089    3.95801862263275
O           1.98069751693548    1.66786529532907    3.70465152847137
C          -0.34240565774523    2.02920504269456    3.46046586183282
C          -0.52924203287569    0.92349196454080    2.65583841460099
C          -1.80111414857228    0.58738620668218    2.20876302809588
C          -2.91287875477742    1.34744045112780    2.54137357406292
C          -4.20685744869585    0.87113814595099    2.09444768629852
C          -4.46860169811558    0.24656360691054    0.89463868488755
C          -5.79082192507475   -0.19944873509441    0.80334065918925
C          -6.53661409323691    0.07455067988097    1.96120791683783
S          -5.61676973463718    0.88999715709480    3.14389202431620
C          -7.85138071231634   -0.42702580568254    1.79106438196390
C          -7.93330423444126   -1.02512550682254    0.51786423775626
C          -6.64534899980989   -0.89025533515185   -0.14792321682750
C          -6.30907081644518   -1.31457288589959   -1.39931311191648
C          -7.22662151428779   -1.95767207021491   -2.25795480600483
N          -7.95994188003587   -2.47210455489056   -2.97317647578925
C          -5.01275852409195   -1.12946181248912   -1.92501078268415
N          -3.95751808482258   -0.98269851509242   -2.34916642101677
C          -9.18094938956993   -1.57981739227015    0.26203976892136
C         -10.05816644116973   -1.40638428403240    1.32538781454479
S          -9.31720763775664   -0.52679515653308    2.65776826723888
C         -11.40357563448896   -1.84996404820957    1.45366474594284
C         -12.07769892369315   -2.66277207274719    0.51108086244995
C         -13.43077529661961   -3.09562275710724    0.72636289852105
N         -14.03227590908641   -3.87680086206510   -0.19393113654118
C         -13.38894385764534   -4.23365151031241   -1.25692664315656
C         -12.04921568819046   -3.81344928767436   -1.46542884004108
N         -11.43881955018935   -3.06150547178815   -0.60914677899511
F         -11.38192243136376   -4.18787376383334   -2.55015379810164
F         -14.01960317971247   -5.00298650927774   -2.13831359111785
C         -14.18616965346653   -2.75246654301810    1.87012942527298
C         -13.52029613700029   -1.92923380563575    2.80705882958999
C         -12.16098542384211   -1.50047196111358    2.59492764705674
N         -11.72110506634605   -0.74379624402725    3.60126701662329
S         -12.88601463096946   -0.58340413330823    4.69580647927430
N         -14.00348311267961   -1.46136264865622    3.95901258379388
C         -15.51080400291067   -3.22475802419579    2.06322015365200
C         -16.34015942781612   -2.94425208351174    3.14283733372611
C         -17.56417259467157   -3.58971595477209    3.04023160334709
C         -17.67296451419474   -4.37127548787816    1.87163897475243
S         -16.26909201649270   -4.29907383536655    0.90034695642147
C         -18.94595547428663   -4.99517499826685    1.87930857049249
C         -19.63676475472434   -4.61148658253207    3.04059194025835
C         -18.79328082745770   -3.71139451160927    3.80832989555952
C         -19.09007312717126   -3.11058106147768    4.99675576280995
C         -20.32783927701122   -3.31217467721505    5.64233258550765
N         -21.33774641192180   -3.48101382158330    6.15917059613043
C         -18.18404920121301   -2.25307058893046    5.65573302563270
N         -17.45529985867154   -1.55474880543539    6.19975698459976
C         -20.90182873424951   -5.19586529091287    3.13896349514543
C         -21.18368600269655   -6.02049188264099    2.07018586161713
S         -19.85649789066555   -6.06846593639836    0.91721013081221
C         -22.37710144916461   -6.79841783758503    1.83602208691100
C         -22.50614359521709   -7.57205926395640    0.66595586571479
C         -23.62615846847270   -8.32507764481222    0.42320833964306
C         -24.67619904665482   -8.33955369131763    1.34711075168722
C         -24.57023171389460   -7.57146334698656    2.52656404897425
C         -23.42115484526193   -6.81159701151156    2.75293502818358
C         -25.65819708286270   -7.61124102840318    3.44617423384315
C         -26.76329180814522   -8.36317274938885    3.20100221664108
C         -26.89583828331842   -9.17132512746979    1.98072834917146
O         -27.83937385432665   -9.86788418158060    1.68299593106258
N         -25.80093337237869   -9.07938445630387    1.13681822532850
C         -27.83277601792973   -8.39240632657199    4.12442057510412
N         -28.68532835319911   -8.39871146582305    4.88955609506403
H          -4.76921606963022    3.25907327629143    3.20300686667565
H          -2.12088100777761    5.70443816313192    5.48848276391724
H          -4.38410256863892    5.23026405979139    4.57561839277021
H           2.41583613419768    4.67765513430628    5.82853269400969
H           3.13806673133656    3.90065948464054    4.38874879364828
H           2.82353590727097    2.93671430862146    5.83926422467124
H           0.32480482978288    0.31463051660623    2.40120997705768
H          -1.93138149945118   -0.30649196285453    1.61819554996047
H          -3.73654702877092    0.15026835276405    0.11365117966079
H          -9.46644584276760   -2.09185964632494   -0.63717845517251
H         -16.03175874775949   -2.30190982184348    3.94673741911774
H         -21.57769854799570   -5.02312374912394    3.95539119631543
H         -21.70238138724056   -7.56996647299269   -0.05523880446510
H         -23.70515430147008   -8.91150450963020   -0.47997120826968
H         -23.36242853120130   -6.23495935549579    3.66203544029402
H         -25.59167907932160   -7.02801051097901    4.35436913585092
H         -25.86776201039712   -9.62833023448416    0.28665192504655
