131
 SCF done       -220.188060535017          0.000535095831
O           5.03042473621759   -0.64288170483594    5.90474767668434
C           4.77715409602374   -0.86722092426895    4.73249653646557
C           3.47269675511388   -0.51111546640751    4.15661790214627
C           3.09217046051387   -0.20734410687642    2.81576038827909
C           1.76975995841707    0.09596629913110    2.86612929097726
O           1.30299175062461   -0.00208592360212    4.12417171395406
C           2.32831649998747   -0.35232082870092    4.89842152652463
C           5.76906306748744   -1.50841998331073    3.87375204788991
C           7.08422516143932   -1.71612895353307    4.22319167220426
C           7.82196601068381   -2.38479427264228    3.24476706832989
C           7.07822735814886   -2.72278300973247    2.13645463447865
C           7.50743856797722   -3.40835082824516    0.93751565099291
C           8.86523971773671   -3.53450172003193    0.62821713966389
C           9.26679597637612   -4.16818205404763   -0.52697296018031
C           8.33298507844138   -4.71831521111296   -1.40614153756475
C           8.77896174868457   -5.35395199964028   -2.65239771390392
C           8.25895254427112   -6.51532181779062   -3.11446288459378
C           8.55927097655923   -7.01748685672798   -4.46745086428079
C           8.89331333038062   -8.35616456066612   -4.66192997582384
C           9.16337598174936   -8.83558838396787   -5.92979137799362
C           9.09090316063828   -7.98903268878973   -7.02334257145560
C           8.74285134964910   -6.66043419107061   -6.84215473233332
C           8.47853340446564   -6.17650011774472   -5.57538292715028
C           7.37525257184150   -7.37272064801939   -2.31541327972324
C           7.62555083456625   -7.61774724319072   -0.96346199762980
C           6.82683977541892   -8.47859222642055   -0.24375442606211
C           5.75994260317105   -9.13543101582734   -0.86130117078358
C           4.95638867785754  -10.07349946395796   -0.09923021262083
O           4.84969101297633   -9.91018315262104    1.22925240069840
N           4.06078356747695  -10.87683490520537    1.74613075344847
C           3.66206456764024  -11.64716151165989    0.76381704849683
C           2.82669959294047  -12.81316842877197    0.99802888606348
C           2.93824220655989  -13.95442371896278    0.20764772133685
C           2.15210649679421  -15.05763358590728    0.46683344791620
C           1.24292454851595  -15.05671193176554    1.52444563254031
C           0.40751925494059  -16.23927729181417    1.77865329655058
C           0.17863997904953  -16.70931830378489    3.02656645265227
C          -0.80572973229690  -17.76800271850781    3.30470972391986
C          -0.48414644650526  -18.80707095819164    4.17628020592798
C          -1.40558209002582  -19.79845121423540    4.45623417974640
C          -2.66599354157337  -19.75954614862446    3.88359871913177
C          -3.00174043981587  -18.71953572434291    3.03203181178432
C          -2.08093570561987  -17.73079399085603    2.74362220223788
C           0.90362537267920  -16.20886462162762    4.20452010805389
C           0.21707068079246  -15.93311230765767    5.38625229415287
C           0.89015491596549  -15.48505819177093    6.50342647836052
C           2.27329715926149  -15.31987227797412    6.47763790404933
C           2.98001451838459  -14.85217393109711    7.66218287831248
C           2.57502211421079  -13.90092367082640    8.55570824539323
O           3.50160378398272  -13.70562459699396    9.51025482895011
C           4.52535758287136  -14.52017476693931    9.24071497001790
C           4.27978123114081  -15.25921244412024    8.11440644558006
C           5.11346101712185  -16.34336905050768    7.56392043476837
O           4.65546896956362  -17.41502104511586    7.21789255233893
C           6.54530607007961  -16.06053247579122    7.46488527491130
C           7.52402115446363  -16.96370251226707    7.12989822175319
C           8.80550352816292  -16.39315884783948    7.07967478104034
C           8.79043911793036  -15.06002255002537    7.36149460358273
S           7.21665513214214  -14.47680412622803    7.70101009422593
C           2.96246992598284  -15.60656557717325    5.30183306920127
C           2.28767632305261  -16.04503536214880    4.18246905148125
C          -0.15382946469421  -16.88373994510226    0.57903263460403
C          -0.09717503330666  -18.26671504115434    0.41650343381717
C          -0.60798019035202  -18.85959069835893   -0.72202661150372
C          -1.18117355479323  -18.08327703876905   -1.71604673979904
C          -1.22970712033215  -16.70692222778338   -1.57021738065841
C          -0.71407397955321  -16.10973495322321   -0.43534640687130
C           1.12550489682478  -13.90431966451687    2.30337656461972
C           1.91085453690745  -12.80146427350119    2.04999098524945
C           4.21760244767690  -11.18059147310973   -0.47154474003226
C           3.99908638215482  -11.73251514650297   -1.82420115057535
O           2.92105317359147  -11.96807707776262   -2.28838633211268
O           5.12710413483117  -11.97310117564997   -2.53361804107667
C           5.49291288020663   -8.88274984204990   -2.20812814583824
C           6.29422673717000   -8.01713709097221   -2.92107103562490
C           9.83223418443960   -4.62489279845418   -3.37963962959904
C           9.74617238096876   -3.24263409014081   -3.53482265763951
C          10.73715977909639   -2.54842971086375   -4.20275292154677
C          11.83569192184128   -3.22090641555419   -4.71174496756870
C          11.93970019398563   -4.59225688078134   -4.54519820388595
C          10.94715648208564   -5.29068792241087   -3.88505954105950
C           6.97722628542079   -4.59035807405370   -1.10106651760560
C           6.57361553375322   -3.94424962860833    0.04584357957351
S           5.43837417761171   -2.18606153326752    2.31371094302621
H           3.71851857292762   -0.18685590738327    1.94883516621218
H           1.07391582064095    0.38603171098654    2.10416018510729
H           2.15594271096753   -0.48660094232141    5.94775476706698
H           7.47999272144942   -1.37778313843483    5.16393305014890
H           8.86217162455812   -2.63064594648768    3.35864518198529
H           9.60814428630437   -3.11348285550146    1.28750699776051
H          10.31979207780824   -4.25008203129962   -0.75591592062186
H           8.95528233752416   -9.01726083944042   -3.80859819299122
H           9.42934515071120   -9.87362113830803   -6.06553555922284
H           9.29984221104561   -8.36440953316561   -8.01390100664124
H           8.67393068501755   -5.99881339576709   -7.69300245116652
H           8.19538860507753   -5.14324662890681   -5.43876897634568
H           8.46680387711486   -7.14181875900147   -0.48293081879121
H           7.02940378689129   -8.66993053122069    0.79897615485641
H           3.65114772785143  -13.98908897174604   -0.60253832985835
H           2.25053657816779  -15.94173973039293   -0.14633325748526
H           0.49952795407917  -18.83922803722919    4.62296237951506
H          -1.13990763092842  -20.60352524570409    5.12584661979835
H          -3.38637788261943  -20.53344362192911    4.10437252448685
H          -3.98777120590749  -18.67789910559658    2.59254209452564
H          -2.35006241381967  -16.91520793372579    2.08863677651619
H          -0.85532666562150  -16.06457861001975    5.41865787079622
H           0.34812286433122  -15.27847971970307    7.41441767278661
H           1.68693712596503  -13.30262695010595    8.60009561456926
H           5.34557137729311  -14.52901021423464    9.93147209034319
H           7.30455947927310  -17.99809549953516    6.93671681756335
H           9.69920805118789  -16.94172103028246    6.84227489213307
H           9.61980120339017  -14.38076752173804    7.38981383866960
H           4.03400607137645  -15.47756578916133    5.26359705259701
H           2.83596968059063  -16.27804941659735    3.28172747755380
H           0.36111829276544  -18.87373163457137    1.18341091198741
H          -0.55524400561218  -19.93255043177620   -0.83664973496450
H          -1.58242866326451  -18.54916863484148   -2.60400880075956
H          -1.66842537560555  -16.09565751727567   -2.34525920528572
H          -0.75278336344489  -15.03540265698227   -0.32350602705660
H           0.40400118746203  -13.87681516714722    3.10610231398937
H           1.82352028181283  -11.91180913510154    2.65373911892493
H           5.92955920278139  -11.71134009963018   -2.06428199872402
H           4.64789648699656   -9.35143468179397   -2.68973270559920
H           6.07948514423799   -7.82622196235425   -3.96207324506522
H           8.88775777309244   -2.71705793642511   -3.14054206580013
H          10.65315043804857   -1.47851160199753   -4.32527199939476
H          12.61062494557115   -2.67775989971670   -5.23178102895945
H          12.80019894133570   -5.11981076883736   -4.92966877586758
H          11.03786482183919   -6.35791607510340   -3.74642244905006
H           6.23942427872414   -4.98690436434880   -1.78278291678360
H           5.52010202172012   -3.84674555232932    0.26492144346928
