85
 SCF done       -185.849130029234          0.000491070686
C           7.75341661003007  -10.43631414119939   -0.96864627123606
C           7.15051013699967  -11.65265721533621   -0.93863970785427
O           6.20110681936671  -11.69173492415406    0.01346037545184
C           6.19836340245341  -10.50529518314533    0.61914764828348
C           7.12618331909660   -9.66619554674420    0.05517867476204
C           7.40887359819535   -8.29728699925465    0.51166188393417
O           7.21084785926414   -7.94961398538903    1.66219117229054
C           7.93725499707863   -7.36766350497741   -0.48153753241202
C           7.88435485336887   -7.39718357046199   -1.85749641906940
C           8.44381034457784   -6.26659244242769   -2.45044652589716
C           8.93010164117460   -5.35812708633963   -1.52920738696514
S           8.66932286299757   -5.90577351050361    0.09600419948542
C           9.57088700385762   -4.11775426386468   -1.79453467908156
C          10.06594406324149   -3.20944723420527   -0.87818862346139
C          10.63762133084202   -2.09891362605324   -1.49925030903608
C          10.57430344378313   -2.16285319244999   -2.90360259624652
S           9.81379519886692   -3.58883407892713   -3.45379779584744
C          11.17839800453583   -1.00355011414090   -3.44665231222181
C          11.62864278377261   -0.20232510464024   -2.37726804041331
C          11.30166925637717   -0.86127396132783   -1.12246218962134
C          11.56285551305842   -0.41168106010356    0.13827392352445
C          11.19701500732461   -1.14266604630399    1.28845595740829
N          10.90235138380726   -1.73121033631043    2.22730275633387
C          12.21702204474054    0.81505044038194    0.38065506213554
N          12.74741695058717    1.80945209224192    0.59181280725941
C          12.24861921130027    0.96416274773796   -2.80355193359784
C          12.27493716139297    1.06502848443394   -4.18945048210809
S          11.51370482886887   -0.31005033240212   -4.97240669061028
C          12.84004097520886    2.11933893720628   -4.95522126048813
C          12.78798120289242    2.12239554533546   -6.36536126846413
C          13.36142903235877    3.17228525543585   -7.15751465360544
N          13.26849281923308    3.10882861674157   -8.49993020994540
C          12.66919101807257    2.10609294073630   -9.05662574599834
C          12.10583258364427    1.06642721900519   -8.27414139239334
N          12.17334097552613    1.09359322206613   -6.98227158154983
F          11.49144588006422    0.03324733394189   -8.84460327657819
F          12.59778066011948    2.08130237223296  -10.38502125566500
C          14.03260722777106    4.27522389436883   -6.58546166991523
C          14.08236703000240    4.28391816810928   -5.17001700039507
C          13.49566848656000    3.23073612826227   -4.37191469617316
N          13.66457262595971    3.45624433539834   -3.06846372701234
S          14.46418342284801    4.82953294086563   -2.86025630631232
N          14.64471659230250    5.21932032015061   -4.40370217121032
C          14.61933305147375    5.29015563958622   -7.38559767786616
C          15.35855590019636    6.38031398178928   -6.94030402290544
C          15.79941135873531    7.17486560320382   -7.98899944048255
C          15.38612313161420    6.69471927959428   -9.24913879259716
S          14.47091314978990    5.25816695359174   -9.13606040058103
C          15.89012391377064    7.57249931439566  -10.24242999485111
C          16.61982635300425    8.59585567728176   -9.61623180135422
C          16.58593505008559    8.38447081738398   -8.18036774517639
C          17.16856650569747    9.15849817893558   -7.21993003833593
C          17.07374796135995    8.85353064622563   -5.84563713939520
N          17.00418093207544    8.61544728335324   -4.72595282993276
C          17.89353077264071   10.32705422248936   -7.53685200246759
N          18.46859386951818   11.28769880249823   -7.78534509948171
C          17.16983627729939    9.50660522905615  -10.52356375523344
C          16.86152545703214    9.18375173148655  -11.82360218894272
S          15.87214925112115    7.74282630740311  -11.94251717377497
C          17.25554322232751    9.88885548356559  -13.01089271080047
C          16.59917180738168    9.95880175111383  -14.21207326866495
O          17.25979032445604   10.74654783620411  -15.07178327061402
C          18.34834492458697   11.20426693276699  -14.44122794658126
C          18.41664123748082   10.72157400579975  -13.16467301632611
C          19.53289291792574   10.86012968191092  -12.20120776462966
O          19.98642497756364    9.89668175928717  -11.61305799194354
C          20.05225155733488   12.20366806541482  -12.01838399353081
C          19.55559008257991   13.41485244372687  -12.44200576380813
C          20.33714374736470   14.49758033206808  -12.01594998172722
C          21.41235038391779   14.10174200114921  -11.27287140862147
S          21.48929812497377   12.40945993069884  -11.06722445113551
H           8.56186338448972  -10.13432200083023   -1.60133728814330
H           7.30106467345517  -12.54045688866022   -1.52013318418257
H           5.49934963094114  -10.33819601310548    1.41430100529878
H           7.42953615985929   -8.19644267453061   -2.41377220383958
H           8.49760297503766   -6.10465619689013   -3.51280837229993
H          10.00452099461677   -3.36712749951656    0.18357541921020
H          12.67127693952304    1.72207831122966   -2.17042593373584
H          15.54745991309137    6.55165493563995   -5.89673316580023
H          17.75877812484982   10.36219696460460  -10.25098041797306
H          15.68449047802876    9.50856589726669  -14.54346086148139
H          19.02018640566681   11.82709690933676  -14.99830865206352
H          18.65561254354450   13.51633435095717  -13.02081379909482
H          20.11587402096049   15.52453646852214  -12.24483076013649
H          22.16503734947223   14.72406401022772  -10.82999886546124
