87
 SCF done       -186.421853497566          0.000422744307
C           8.94886072438488  -10.81790006646789   -1.42390219461045
C           8.49030716923947  -12.09565530175975   -1.44963884562270
O           7.60824499284169  -12.30643453527301   -0.45615400443472
C           7.50622715041320  -11.17031084567910    0.23151961183991
C           8.29910618831218  -10.19404846438500   -0.31756035447931
C           8.45800111809526   -8.83361596256268    0.21622732970773
O           8.28731278806896   -8.57757184100368    1.39419458322612
C           8.83687964445927   -7.79804180133534   -0.74203382612602
C           8.67964554445630   -7.74740252711021   -2.10936895611143
C           9.11057291073111   -6.54397110440752   -2.66492172243046
C           9.60386780420906   -5.66074280357502   -1.72293118866519
S           9.50446527629585   -6.32378609643269   -0.12241048362942
C          10.15061589983886   -4.36993726397754   -1.95368365964965
C          10.66928517683226   -3.49226505085485   -1.01950099214879
C          11.14385362098737   -2.32179944984035   -1.61001244305485
C          10.98046619486343   -2.30818754525729   -3.00871128389370
S          10.24378328331941   -3.73441502792731   -3.59008112421615
C          11.50325188582335   -1.09948145013908   -3.52292189881754
C          12.00351659839109   -0.34232885492357   -2.44224389057738
C          11.78965711203473   -1.08253023034443   -1.20816667993378
C          12.12973925541694   -0.69638283462350    0.05465189667919
C          11.87489392804696   -1.50478449996314    1.18287460781878
N          11.67464686452228   -2.15965084554304    2.10232533032181
C          12.76127945268644    0.53746834501035    0.32033497353448
N          13.27486169814825    1.53692550796593    0.54846202098405
C          12.56249566966929    0.86217522904041   -2.84292333258740
C          12.49395867564279    1.03459293090635   -4.22116960060335
S          11.71408469133061   -0.31744684747589   -5.02936206831420
C          12.99272165340848    2.13002282012151   -4.96929975327852
C          12.85349046159054    2.17563786404760   -6.37409943856226
C          13.38462890259266    3.25438200155020   -7.16862345857508
N          13.22011217364415    3.23904918588781   -8.49442307162639
C          12.58059186427695    2.24631642389125   -9.06680980421317
C          12.05736653971126    1.17175510097223   -8.27812255577385
N          12.20823383187460    1.17069574157165   -6.97485440011748
C          11.36992667667700    0.09781453860795   -8.89425520894569
N          10.81843820397343   -0.75791476055930   -9.41939031232289
C          12.41272158395853    2.25173369039587  -10.47284272196957
N          12.26103788071975    2.23053984432108  -11.60809999073842
C          14.08998579380899    4.33825475533398   -6.59762980252137
C          14.20961824680369    4.30897250964200   -5.18669326070192
C          13.67100548460346    3.22943410767887   -4.38958798203167
N          13.90893164744848    3.41660025125496   -3.09160735294834
S          14.71361885217637    4.78822364375629   -2.88551234405022
N          14.80970874432754    5.22366440266944   -4.42525425116562
C          14.64564248126798    5.35755232465090   -7.40862322072157
C          15.39018839820631    6.45322009257859   -6.98340383471853
C          15.80999813882142    7.23913135142141   -8.04544688359955
C          15.37955407475899    6.74541105491063   -9.29614235490652
S          14.45984643730959    5.31226820525953   -9.15714980885990
C          15.87575394346380    7.60713681475659  -10.30492094804897
C          16.61502579530051    8.63728244539197   -9.69868857666011
C          16.59421072809723    8.44633193157416   -8.26011193059072
C          17.18583866351733    9.23364225988972   -7.31619831132198
C          17.10509809054981    8.94604779447929   -5.93725722522752
N          17.04334716606721    8.72125168056968   -4.81454722466920
C          17.90618661807844   10.39814420951085   -7.65803061850882
N          18.47885669899181   11.35415545032128   -7.92891091317767
C          17.16897120481382    9.52646722161990  -10.62307051620389
C          16.85831926092614    9.17932219251955  -11.91726323702724
S          15.85667751586520    7.74584956842989  -12.00852792305931
C          17.27268031435962    9.85401960542235  -13.11480110489230
C          16.63355381226640    9.91098636195437  -14.32619502963136
O          17.31890636838977   10.67032361559829  -15.19092503201128
C          18.40752525068061   11.12172561085574  -14.55488019040899
C          18.45039244378803   10.66322781717507  -13.26890557310130
C          19.55273250851205   10.79817594835975  -12.28767803947370
O          19.99334883708166    9.83103417920759  -11.69545261472138
C          20.06748118406821   12.13986267861831  -12.08638227591293
C          19.59647204144327   13.35155356366302  -12.53777714912632
C          20.36120749159584   14.43246911942629  -12.07870002950764
C          21.39746263855007   14.03507384943231  -11.28261239798097
S          21.45878828619129   12.34360011708615  -11.06859301114637
H           9.67892675989572  -10.38247901645170   -2.07391908162976
H           8.70653711468975  -12.92037412589744   -2.09930209891078
H           6.83972125787703  -11.13803188744189    1.07029112361920
H           8.24133217852743   -8.54402126543613   -2.68250681397167
H           9.07122944018649   -6.31431692107760   -3.71533235038785
H          10.69470966431542   -3.71500754583382    0.03204500443540
H          13.00900270444831    1.59839822995753   -2.20031606602129
H          15.59813006875462    6.62999274831719   -5.94416276577247
H          17.76329290655449   10.38352359943526  -10.36746432232343
H          15.71562854343811    9.47008831190080  -14.66126797153378
H          19.09721351660340   11.72197933044825  -15.11487681499766
H          18.72694675909004   13.45401125579961  -13.16122587929393
H          20.15588986296064   15.45946770276514  -12.32172821806608
H          22.12942296903065   14.65650963579382  -10.80506386460576
