149
 SCF done       -270.369715162765          0.000731329842
C         -14.51559478874270   -3.07174018519534   -0.27913006069555
C         -15.21994135223549   -2.85332804431197    0.89554514902497
C         -14.56623787880123   -2.75075336866309    2.11554577979683
C         -13.18583587072623   -2.85661046698640    2.19586307914797
C         -12.47247619377432   -3.07741886650846    1.02994143720203
C         -13.13613471376934   -3.19015816086423   -0.21370390871796
C         -12.14861632304070   -3.43438151109919   -1.25741318174307
C         -12.38628834101589   -3.46355582925413   -2.60469524534871
C         -13.65540947523438   -3.26529267973374   -3.18898908261706
N         -14.65747566027024   -3.11490408921357   -3.72789676140089
C         -11.40024530696411   -3.64639197546628   -3.59727224615694
N         -10.64893183792049   -3.77985680777426   -4.45536084376918
C         -10.87217865613555   -3.64122378228224   -0.58074849328712
C         -11.04296452811789   -3.18901491948939    0.79528890658668
C         -10.05236962455235   -2.69366311953280    1.59908263123732
C          -8.72479735836295   -2.50288054029745    1.15703547356343
N          -7.65786041550533   -2.26926205998367    0.80391857283033
C         -10.26066604067140   -2.23653746280602    2.91551177533825
N         -10.36930099164549   -1.88000234300132    4.00103343791624
C          -9.79678945639773   -4.28035167317650   -1.12529222850038
C          -8.70623001437114   -4.88794422549167   -0.45429000480302
C          -7.51371157419667   -5.22668965312620   -1.04830416421008
C          -6.59827032748799   -5.85424501293165   -0.18126073946025
C          -7.14636738769683   -6.04900142577164    1.11455950479954
S          -8.76968617796612   -5.42420665102316    1.21840990817393
C          -6.47342691005379   -6.68391097897976    2.14062868251466
C          -7.06018256535747   -6.84343362387783    3.47530596362949
C          -7.08365747415590   -8.08803203369196    4.10186867652842
C          -7.64013100826404   -8.22744593243993    5.35656928206651
C          -8.18483962202016   -7.13512372025278    6.02450795010259
C          -8.16246368593469   -5.89685862065086    5.39578562083764
C          -7.61091820317927   -5.74969332117296    4.13767875861023
C          -8.76400918771208   -7.30117779987797    7.39456904330392
C          -5.18302896021911   -7.16424440989828    1.83313814553001
C          -4.63995051606198   -6.99631866208611    0.53128539526720
C          -5.30132434781935   -6.32058636375985   -0.48036029721769
C          -4.67934979028538   -6.05799888286784   -1.78171400048266
C          -4.06427105327333   -7.07563076175920   -2.50430681373255
C          -3.46753375957915   -6.80716132129596   -3.72144237088934
C          -3.45772359289026   -5.52098575371593   -4.24512416945696
C          -4.06555415624624   -4.50428513858919   -3.51503687481618
C          -4.67089801599648   -4.76447037773102   -2.30291377794230
C          -2.81882685767959   -5.22229845589519   -5.56566168364876
S          -3.03618773895243   -7.67683510723791    0.42415599021336
C          -3.07858961600076   -8.12563199862823    2.11647631867334
C          -4.27098390724444   -7.78313071570027    2.70844999550276
C          -1.95090909228181   -8.77362746560704    2.70780832243641
C          -1.82613348860114   -9.07047218245149    4.08387896806109
C          -0.65088835044285   -9.70916249412802    4.61236452067368
N          -0.56376628522340   -9.94469305435753    5.93752103786634
C          -1.53491038870708   -9.60747135437127    6.71975463297343
C          -2.70202939578891   -8.99547387138275    6.19536359051698
N          -2.82410754335493   -8.74381722164459    4.93445337459783
F          -3.71869246035062   -8.66201420963492    6.99032679600803
F          -1.40667831788870   -9.84926765477077    8.02112560731840
C           0.43845675425909  -10.11531222428524    3.81147786303276
C           0.31260597547301   -9.83232498667976    2.43351762393537
C          -0.85422914712592   -9.16340038902444    1.90853795762990
N          -0.76648828811924   -8.98100893012337    0.59063155395616
S           0.62153214149027   -9.58179786941777    0.06228534009811
N           1.19162027126010  -10.10691856203753    1.46660045786933
C           1.57800709189310  -10.76582878599931    4.37082463070685
C           2.65961914014360  -11.25440988546869    3.67415802854340
C           3.63597601484276  -11.85517450398985    4.49061474474140
C           3.28906141285639  -11.77541009099139    5.86679770256994
S           1.72771142489096  -11.02255326715354    6.09142424003829
C           4.09538911404448  -12.27424464898945    6.87223763736636
C           3.69146180160101  -12.26514559931231    8.28213736404904
C           3.73185097228242  -13.44043229621561    9.02917955082478
C           3.35110484234987  -13.44354061150459   10.35703967734466
C           2.92129909497671  -12.27641326248498   10.97624963255746
C           2.87223430817676  -11.10661739207340   10.22486992839259
C           3.24721463607264  -11.09705328093428    8.89660664035222
C           2.49674312842195  -12.27508899589685   12.41159988511774
C           5.32504035257980  -12.83896374606230    6.47138022709945
C           5.66593782748489  -12.92773279137110    5.09351278220355
C           4.83848392951876  -12.46979137783033    4.08285036807830
C           5.17243109101549  -12.63067435674876    2.66373693411746
C           4.24657953690579  -13.17961751898847    1.77976607884207
C           4.56478163773861  -13.34667160669170    0.44614823618879
C           5.80799418585316  -12.96860504705552   -0.04511587330517
C           6.72975720125457  -12.42023115154688    0.84019090660016
C           6.42210340731949  -12.25595804952088    2.17554715786704
C           6.16437248739647  -13.16298359712117   -1.48611828743560
S           7.20820269589455  -13.70657362539610    4.87868115779464
C           7.39688107168178  -13.89932780669258    6.61251238835979
C           6.32854258051655  -13.36946097047974    7.30001614689810
C           8.60674900865095  -14.45037311105387    7.09711019690031
C           8.88103220046198  -14.93815861335802    8.34367019202721
C          10.23096198945699  -15.08413215032120    8.88189080338980
C          11.40346138216631  -15.15087699738703    8.17970511121513
C          11.52022258413753  -15.13824387918340    6.77300606445353
N          11.69922503527350  -15.13708873632913    5.63887728188926
C          12.67429917991528  -15.29350210263074    8.77719488181037
N          13.73645321818329  -15.41202931759154    9.19558367691298
C          10.09786013702714  -15.15403286795459   10.33149658672981
C           8.72549105882324  -15.22461981089637   10.66184555736843
C           8.31765425976255  -15.27870769776276   11.98426762179024
C           9.28663411160611  -15.26450104960937   12.97605311263963
C          10.63525487097776  -15.20534583027880   12.65432207778841
C          11.05532879414741  -15.15003727416876   11.33368805123111
C           7.95846220418093  -15.25801855601939    9.42681195954030
C           6.69162999051361  -15.75885412645339    9.29366091131228
C           5.85823603744094  -16.09443227011458   10.37905541527786
N           5.12187769132088  -16.35558543046146   11.22034347180214
C           6.09651210321962  -16.06673685545191    8.05186052256372
N           5.58497542452788  -16.38730160610933    7.07591945038257
H         -15.04084923059315   -3.15174581836610   -1.21669073840180
H         -16.29490173561057   -2.76490130349035    0.85691830464219
H         -15.13847459334433   -2.58698160215114    3.01587822166345
H         -12.68584287543756   -2.78136345596798    3.14811209004512
H          -9.78361084043030   -4.42146788037437   -2.19854778162604
H          -7.30424223783857   -5.01154560735204   -2.08114884074195
H          -6.68573954302133   -8.95082913148106    3.58762720093993
H          -7.65390198256079   -9.19884238211085    5.82966624821907
H          -8.57749873429433   -5.03371021456885    5.89566170146444
H          -7.57926877443225   -4.77240907024718    3.67780280386671
H          -7.96683336371588   -7.48575198917513    8.11464673397695
H          -9.44138468815363   -8.15295853334017    7.42439025829362
H          -9.30475406277582   -6.40950379057265    7.70069520713984
H          -4.07374831942513   -8.08475074940029   -2.12062619679693
H          -3.00224053258115   -7.61141210849798   -4.27301742540671
H          -4.05967992941052   -3.49579038762767   -3.90294833492650
H          -5.11463910112825   -3.95878753414762   -1.73621922029215
H          -3.58059253451883   -4.95991960333898   -6.29969047688386
H          -2.26541255878406   -6.08143808303142   -5.93583651736480
H          -2.13874090695508   -4.37662355609967   -5.47826485531714
H          -4.47094520890998   -7.96098040924427    3.74719710990732
H           2.74135183380434  -11.16438558168609    2.60700904342277
H           4.02836988605141  -14.36348774287397    8.55116676974153
H           3.38853135080668  -14.36720463266948   10.91706385541752
H           2.53540317540163  -10.19133097297183   10.68974634257710
H           3.21797317842647  -10.17634212454597    8.33348816841678
H           2.81077030441701  -13.18819595602707   12.91063532626469
H           1.41099301089968  -12.20413260110339   12.47708442239727
H           2.91722052116756  -11.41971539407053   12.93740641286279
H           3.28453395883655  -13.50275336292707    2.14913447023238
H           3.83675394860277  -13.78241693626178   -0.22322789689336
H           7.70114328594548  -12.11854023020819    0.47606627332450
H           7.14584472080767  -11.81112532889512    2.84226867772275
H           5.27955710161449  -13.36656257463431   -2.08398061854773
H           6.84839361197793  -14.00555888859081   -1.58924808520432
H           6.66357054434144  -12.28059966527698   -1.88190295671065
H           6.28685290667497  -13.30360075462791    8.37299235312836
H           9.42626443187003  -14.40621198975802    6.39165256103510
H           7.27226637869452  -15.31754198581899   12.24470637954008
H           8.98507794512832  -15.29898351227433   14.01172267669951
H          11.37224974996660  -15.19822014199275   13.44269289759139
H          12.10675651876132  -15.09886255841363   11.10396042507675
