137
 SCF done       -262.123610747409          0.000685381596
C          -3.35837237814001    2.81756827501706   -1.43569258526664
C          -3.96288918620121    3.26082761421925   -2.60266849843448
C          -4.26789217040375    2.38079570508778   -3.63152360251323
C          -3.96975118465968    1.03042123123492   -3.52659983943842
C          -3.36845095727239    0.57630265977538   -2.36519239448884
C          -3.06421820319984    1.46884997814885   -1.31152763321069
C          -2.46038277904341    0.72030758403061   -0.21618983567390
C          -1.90868785888537    1.25126822204883    0.91807307128463
C          -1.84889248017820    2.63344284275376    1.19600720484253
N          -1.76673456269311    3.74145361470527    1.48373563921524
C          -1.28432020932507    0.50808632980109    1.94226840823577
N          -0.75738141181575   -0.02950293823443    2.80936796465005
C          -2.56634185058513   -0.69122811538157   -0.57019033810643
C          -2.90763609693480   -0.74918925566301   -1.98633434068825
C          -2.57572121956656   -1.76258283016718   -2.84398911633357
C          -1.79387478160771   -2.87321165716010   -2.45676296600969
N          -1.09803298287598   -3.74618586396271   -2.19107667987827
C          -2.88578436554571   -1.76153788959256   -4.21835838140014
N          -3.13687885618525   -1.81949054320830   -5.33683820899167
C          -2.50392027655810   -1.72088844409330    0.32368995330721
C          -3.00235155509448   -3.03883999491517    0.18921633462977
C          -2.69375746886194   -4.07390481095945    1.03995939838064
C          -3.36736339984046   -5.27671022336836    0.75925132673523
C          -3.21967192982755   -6.52841217911723    1.40357374478821
C          -2.38277594940249   -6.71356448216276    2.56576030332731
C          -1.62576287303203   -7.80643099758413    2.89439750780287
C          -0.96606820015050   -7.67934091522567    4.12985452132293
C          -1.22356896818098   -6.50328416272985    4.76732722186925
S          -2.28715517329040   -5.51163883689657    3.82836400166813
C          -0.71144838216045   -6.02602980414939    6.07692622437225
C          -3.94282321616675   -7.58641521221395    0.86352129133344
C          -4.78963359000231   -7.45521831363677   -0.26728674195521
C          -4.94512835019622   -6.20220980350198   -0.91073048956751
C          -4.23731710476462   -5.14546283116510   -0.35520765749010
S          -4.22233365627761   -3.51890044894275   -0.97772216152593
C          -5.75531356524497   -6.02131320229869   -2.09315198456364
C          -6.49773584184255   -4.92618229623000   -2.44741625393539
C          -7.10816472358925   -5.04758258846915   -3.70901263642104
C          -6.82804127391623   -6.22346113764182   -4.33665174264341
S          -5.80521106164730   -7.22081737776265   -3.35862908713052
C          -7.28047311714274   -6.68930629691410   -5.67279831791892
C          -5.44260283619100   -8.66299482745883   -0.56964931989266
C          -5.12311902022978   -9.69706464762995    0.27968531299187
S          -3.99185504734617   -9.20704469408202    1.51080289176005
C          -5.61484385292364  -11.03375256056615    0.21467614206074
C          -5.27865118488934  -11.99000356230749    1.19457843218094
C          -5.76890404772622  -13.33673163393952    1.15720124434240
N          -5.42785176074040  -14.18999167019123    2.14424630021670
C          -4.65290912630287  -13.78991889848547    3.09828705443454
C          -4.15080832974394  -12.46206509021581    3.12421756163549
N          -4.46686417870381  -11.61169653872236    2.20316545986729
F          -3.34265446088078  -12.05496068034004    4.09912783498484
F          -4.34357066478475  -14.65756688620294    4.05780664966191
C          -6.59641617484057  -13.81429620033090    0.12024334315720
C          -6.92812396830313  -12.86679541807761   -0.87572097913670
C          -6.45404773945057  -11.49909356786520   -0.82412317029109
N          -6.89871135834873  -10.78893555194120   -1.86218659663530
S          -7.80297459667668  -11.72373403923761   -2.79881506992834
N          -7.69250733189304  -13.07797883328498   -1.94857695858607
C          -7.04701885573072  -15.16652661039970    0.09388556193874
C          -7.80026429208976  -15.76223709095935   -0.89198248348112
C          -8.08284619401097  -17.11758483647585   -0.64971222072020
C          -8.84525615822863  -18.00200339976810   -1.45293700444655
C          -9.36016342243374  -17.63780796811228   -2.75250302835828
C         -10.52452279152220  -18.04972350090749   -3.34441271107702
C         -10.68268495700965  -17.57477786257177   -4.65921303265738
C          -9.63941435651025  -16.81256563943391   -5.09018769567508
S          -8.43693071002918  -16.65079448540913   -3.85516672027182
C          -9.45176506664059  -16.16505416839668   -6.41398544004668
C          -9.02937948572213  -19.27852999204651   -0.94059076757709
C          -8.48302408730606  -19.71950987126004    0.29271912411289
C          -7.73777998660235  -18.82738044280022    1.10030492876023
C          -7.54089045108342  -17.55103947139595    0.58796648821022
S          -6.65979266315514  -16.27215163925113    1.38303832368749
C          -7.23614093575438  -19.22994726765341    2.39280111490561
C          -7.86437326336431  -19.99763357993128    3.33860883589120
C          -7.10262833738174  -20.17343756677092    4.50718825568899
C          -5.88932480534764  -19.55347931140340    4.46066614205883
S          -5.67207669400703  -18.71661811774401    2.96135281731620
C          -4.82345358910437  -19.53213746941744    5.49455161803570
C          -8.71434484708432  -21.09040318088334    0.51019424068527
C          -9.40128288832882  -21.71481839538248   -0.50389861125052
S          -9.86037392644326  -20.57339016553736   -1.75766125170483
C          -9.80425843506379  -23.07194460558344   -0.49367088040777
C         -10.23153497086654  -23.83278819627673   -1.54425045547763
C         -11.05310387354230  -25.03214137592067   -1.42434588034186
C         -11.24122930988174  -25.80133431093134   -0.30768523655251
C         -10.62194598813020  -25.58799080358069    0.94189486721589
N         -10.15494323266002  -25.47604533755093    1.98512853842432
C         -12.06076744105940  -26.94938788676652   -0.26648973909444
N         -12.70839384668573  -27.89144117216081   -0.16383069583030
C         -11.65766745208229  -25.25448464705025   -2.73203136528785
C         -11.10858724108874  -24.33459467042260   -3.65474331879886
C         -11.52661869166189  -24.32037451212429   -4.97456594808937
C         -12.49784182964367  -25.22797297835625   -5.36986008227326
C         -13.03384306176976  -26.13677246507574   -4.46838707138932
C         -12.62085300107028  -26.16186782502909   -3.14453646733174
C         -10.09785631650249  -23.54807961775392   -2.96769052082018
C          -9.04355005380336  -22.90300713992101   -3.55607235497114
C          -8.92940890510261  -22.68601737115888   -4.94354052428876
N          -8.80065352051819  -22.46146700323800   -6.06169603226337
C          -7.90543380246596  -22.47032603075933   -2.84092723962997
N          -6.93868515649704  -22.17335828551200   -2.29825980881710
H          -3.13198530095352    3.51524536676218   -0.64619449343659
H          -4.20133989461197    4.30816906034914   -2.70784836196585
H          -4.74426113500234    2.75031274306514   -4.52676504715921
H          -4.21415107438011    0.35216345316564   -4.32830507304879
H          -2.10422819178315   -1.50773411185222    1.30686316958574
H          -1.95800669085594   -3.96288888771186    1.81522870727030
H          -1.51170966791837   -8.65954312757538    2.25148887248335
H          -0.32326348132325   -8.43942417355313    4.53631140973443
H          -0.08614715814062   -6.78988295381877    6.53178251846541
H          -1.53476849524487   -5.79565706019055    6.75199962196989
H          -0.12245497402706   -5.11782377617729    5.95129516545891
H          -6.64171009936563   -4.07598327848152   -1.80534428383419
H          -7.73274330815671   -4.28489466987021   -4.13881908908539
H          -7.96586886707978   -5.96513991388237   -6.10624673781835
H          -7.78394303781776   -7.65245950144900   -5.59573180295586
H          -6.43022046840133   -6.81084872399034   -6.34384505225545
H          -6.14567590893202   -8.79262163301964   -1.36992438292233
H          -8.13915476868142  -15.21182030254726   -1.74874299108664
H         -11.26850275355520  -18.63917593647508   -2.83940967900267
H         -11.54173697577812  -17.79525590527668   -5.26749039042685
H          -8.58948380062035  -16.58955102476631   -6.92816699004445
H          -9.27772923478938  -15.09562732651418   -6.29992166376790
H         -10.33444041061323  -16.31662013100411   -7.03039478005199
H          -8.86313535848267  -20.37887706612055    3.22106129709171
H          -7.44353426535400  -20.73969669936470    5.35564549488441
H          -4.55344067879363  -18.50689063086241    5.74419836395754
H          -3.92602504601653  -20.03206137168636    5.13043266822087
H          -5.16530461640768  -20.03849512902351    6.39390253148009
H          -8.32965789414312  -21.63361011781731    1.35411552543484
H          -9.84630955646895  -23.50956856149266    0.49536298439747
H         -11.11889311070992  -23.61394588114923   -5.67961912407368
H         -12.84051146329796  -25.22528393116731   -6.39333339021970
H         -13.78699449098908  -26.83559375631089   -4.79890905629885
H         -13.05094003453257  -26.87317207423126   -2.45880096578678
