88
 SCF done       -164.925020507066          0.000575133307
C           1.38756445016662   -0.18087297866199    4.41297194031872
C           1.35462628582715    1.05388152315403    5.00433581398264
C           1.49901349286175    2.21323085748324    4.24118759416422
C           1.67654772345395    2.17906389699763    2.86780377377767
C           1.71215193846498    0.90000570028455    2.23273352524713
C           1.56937723104194   -0.27277402616456    3.02137892042488
N           1.60922112573667   -1.49329101895602    2.44375743759812
C           1.77856287952928   -1.57762456873333    1.15175113056618
C           1.91744906297855   -0.40197884342718    0.35390617158315
N           1.88367806320953    0.78467362251279    0.90154586725862
C           2.10650515448051   -0.47448453058136   -1.12305668087273
C           1.82310707118688   -2.94032338035646    0.54610438711642
C           1.82366430728389    3.39994776054276    2.11787945054015
C           1.92023820057304    3.56418062123171    0.75398997276663
C           2.05741661807746    4.90418544387053    0.38498127674533
C           2.06644827683813    5.77629851374595    1.48349821165246
S           1.90380594176375    4.94715828563416    2.96435151859659
C           2.20937223600109    7.10530812395524    1.00273388582428
C           2.28564405604056    7.06880131979429   -0.39922545804814
C           2.19880241344256    5.68283076181973   -0.83339973537209
C           2.25309302846137    5.20863116670461   -2.11186669075360
C           2.39571079236046    6.05830220340782   -3.22900953612580
N           2.51680103925069    6.73629238222518   -4.14597927615568
C           2.17726224146288    3.83116437173287   -2.40365819451907
N           2.12037421822297    2.71279347051593   -2.65274853855779
C           2.42702818013196    8.33416494282016   -0.96966846045976
C           2.46490502499459    9.33255738160207   -0.01646050874263
S           2.31958814355054    8.69266897720090    1.61732225525883
C           2.60499161631729   10.73745943731247   -0.23427077271405
C           2.70479001295565   11.65857519205452    0.80671939644089
N           2.83994834575021   12.96675211780617    0.67422605410835
C           2.88721544850538   13.53397588867799   -0.52244955630488
C           2.79544365398626   12.72312807127993   -1.68761727560439
C           2.65591008359415   11.30113829045008   -1.53709494065388
N           2.58645514778246   10.68647058901175   -2.71680703165537
S           2.68746179299025   11.78213135952835   -3.88779052879583
N           2.82360774286315   13.09080922541408   -2.96591322475331
C           3.03208690356115   14.94971969748431   -0.57516339278352
C           3.06647235433214   15.78190588221206   -1.67780646071711
C           3.21757544088341   17.11640665173612   -1.30637677542330
C           3.30199930598768   17.28855306443134    0.08957850670071
S           3.18810879614344   15.81575734801994    0.94131484149240
C           3.45750862655544   18.67444232451740    0.35924690452392
C           3.46760656720240   19.37131017932541   -0.85845002304421
C           3.31416454757756   18.41891601943778   -1.94510429463409
C           3.26371854872496   18.69660463529897   -3.28052963926600
C           3.36282633514942   20.01229837757106   -3.77762125574855
N           3.43765568669841   21.07797294843447   -4.19586297211554
C           3.10511690963852   17.69115463040494   -4.25727095972895
N           2.97449877425835   16.88629651383222   -5.06370124285542
C           3.61601830418293   20.75015148313896   -0.69750767770834
C           3.72079789075473   21.11787162652602    0.62610368213089
S           3.63261578447271   19.71739423352553    1.69673870221074
C           3.88223041321242   22.43746492296379    1.18064811946256
C           4.01099684274909   22.61441742111452    2.54866319305805
C           4.16808418007477   23.87444560716084    3.12725919987132
C           4.19932601230090   25.00147448374440    2.34984434392809
C           4.07116738024041   24.87885105861489    0.95465690518026
C           3.91344666243212   23.60163890356504    0.35314956577661
N           3.79401357692110   23.51223745375415   -0.98575094775318
C           3.82366991048496   24.59869064292768   -1.71233769051002
C           3.97953047108246   25.88002339815044   -1.10232063336810
N           4.09878357969027   25.99415036966633    0.19293953867973
C           4.01135204816477   27.13113290012856   -1.91425170978908
C           3.68899392046759   24.44470484021612   -3.18890517443597
H           1.27929287873865   -1.09312611850421    4.97734001854026
H           1.21592075901134    1.14323104893388    6.07142049044935
H           1.46803803342672    3.17165849580128    4.74062989521273
H           1.27724846568387   -1.00890893105242   -1.58400901535245
H           3.02315303185504   -1.01343743632064   -1.35902596563262
H           2.16313435780093    0.52686141540334   -1.54122524025939
H           1.70980838373284   -3.68525794714566    1.32835263941414
H           2.77060876277126   -3.09557506200766    0.03227057787799
H           1.02255599655437   -3.05721005315393   -0.18291367594055
H           1.89150916067516    2.72476815410910    0.08500623129915
H           2.50075193964862    8.54605483930479   -2.02059284352052
H           2.67598729308896   11.31117622166217    1.83193730838283
H           2.98346589608222   15.40832063191634   -2.68213840551461
H           3.64899686394492   21.47909519284141   -1.48538198563600
H           3.99052702053826   21.74572629184202    3.19190672910185
H           4.26511627105769   23.94985636947015    4.19996877720023
H           4.31902198760347   25.98759457069398    2.76899551575324
H           3.08681531291714   27.23935347374954   -2.47941405695463
H           4.83705920406256   27.10147050104029   -2.62363775382726
H           4.13317390066316   27.98507338860980   -1.25425766924411
H           3.59056995175476   23.39379437773617   -3.44706595400413
H           4.56249242802827   24.85681169363890   -3.69208868369658
H           2.81303328436248   24.98481911193664   -3.54555176089606
