95
 SCF done       -183.819584540295          0.000503714703
C           0.76357072435748    0.10753565554473    4.70914140977502
C           1.23722887475896    1.28477079380528    5.22531819698826
C           1.33592010779411    2.42383883453955    4.42616151704873
C           0.96547333473081    2.42727176921787    3.09026849531520
C           0.46895471172432    1.20831951493422    2.53406728891589
C           0.37500606796306    0.05487516489887    3.35853745988182
N          -0.08943532565110   -1.10785900491999    2.85317561115745
C          -0.45030911199932   -1.15827641397833    1.59981528430461
C          -0.35772621722854   -0.00194410865229    0.76661139495222
N           0.09073122759808    1.12907782413982    1.24419104873699
C          -0.76333341652516   -0.03479193166263   -0.66705069695187
C          -0.95780907186320   -2.45874120032044    1.07489587821695
C           1.08371599632918    3.62644932163326    2.30334402109102
C           0.72596938040610    3.82734899422497    0.98606761502879
C           0.98656710496665    5.12727824202115    0.55546422574007
C           1.55398073115128    5.93556099477446    1.55843492465080
S           1.76119299890056    5.08844902733128    3.02379716376165
C           1.77760590398761    7.22922838114972    1.03197148280119
C           1.34616921172576    7.23819562602602   -0.31262727094411
C           0.84165712096118    5.91682154352580   -0.65378327198623
C           0.34567740022804    5.50065149888117   -1.85548125513207
C           0.25613306516738    6.35619356016250   -2.97346283513262
N           0.17833804600959    7.04048046383688   -3.89034639455215
C          -0.10650261993657    4.18119174046182   -2.06138480792164
N          -0.47564763356769    3.10972941830006   -2.23987638629515
C           1.51675870840129    8.47097132094705   -0.92398617681318
C           2.07946394396031    9.40658623388219   -0.06194831321916
S           2.40306097408222    8.73972926413540    1.53278961753298
C           2.38649510977883   10.75854838726629   -0.35175201662079
C           2.98696422163952   11.59260638223831    0.61777396265518
C           3.31261656574567   12.97179356382954    0.35480383721292
N           3.88362010081469   13.70864247296741    1.31245296607630
C           4.14349030743654   13.17629920542775    2.48438494816078
C           3.81895916012710   11.80745695812165    2.74598840792961
N           3.25825018576611   11.06833943763706    1.81668397080243
C           4.09863650556294   11.23196700924795    4.00891193017161
N           4.33452469400451   10.79049342283735    5.03943957445125
C           4.74790962156094   13.97360921613441    3.48605252379206
N           5.23591054204864   14.59554179047859    4.31526953494613
C           3.04596862061379   13.58803500393510   -0.88822983452194
C           2.44319866245132   12.75593806020280   -1.86331197103089
C           2.12290789048182   11.37044835272907   -1.60166641350384
N           1.56534463918996   10.78981760099736   -2.66339740926117
S           1.45275523270915   11.85330302280120   -3.85945533855890
N           2.10250130651714   13.10953069499905   -3.10195083946180
C           3.36689935929657   14.94920636088527   -1.11229379489831
C           3.13125466749547   15.68570309257682   -2.26845803364463
C           3.56703104790500   16.99624786249770   -2.14716530601410
C           4.14726754007482   17.26723432663988   -0.88848349863100
S           4.14328531178516   15.90402208313234    0.14416342112901
C           4.55277432157143   18.62258193014668   -0.87266856727821
C           4.22878042831293   19.20901602571604   -2.11063673704164
C           3.59659629438555   18.20859015690985   -2.95054584346719
C           3.12203662797063   18.37733726228294   -4.21926330342742
C           3.19428185036436   19.61730925997201   -4.88625941985010
N           3.24405054797406   20.62291713042669   -5.43628077174287
C           2.52156342627483   17.32877306110077   -4.94716988049670
N           2.03157645043228   16.48527209311074   -5.55018770366384
C           4.59260934659374   20.55210792676482   -2.18974076015784
C           5.19134240499923   21.00543342854506   -1.03244385761687
S           5.30521176192055   19.73076539678625    0.18324103217206
C           5.69414038492827   22.32258975061057   -0.74327013407299
C           6.33538589433354   22.58323132938661    0.45780242279375
C           6.83721145901547   23.84504370816473    0.77732347370437
C           6.70958248150918   24.89074532062214   -0.09844549248612
C           6.06420467089985   24.68224432000451   -1.33049513251395
C           5.55188663958496   23.40112095935999   -1.66977323689489
N           4.93863873506814   23.22975940988974   -2.85623775012352
C           4.82184211317497   24.23811448067070   -3.67949142541638
C           5.33681254798854   25.52434746933648   -3.33252174000225
N           5.93578859049814   25.71661513400247   -2.18886729026194
C           5.21036138255607   26.68892956924930   -4.25555965971925
C           4.13800677235952   23.99259456779478   -4.98066409342092
H           0.67610471361382   -0.78800465879690    5.30304704168061
H           1.53959777391990    1.34303105332930    6.26006787695559
H           1.71316761929743    3.33636943205324    4.86602651328061
H          -1.80864842563771   -0.32682387256893   -0.75641843338391
H          -0.16572546396048   -0.76527320572572   -1.21061546676697
H          -0.62632396790273    0.94490339176377   -1.11670668824897
H          -0.94216267969360   -3.19829338382258    1.87015806116150
H          -0.33668731560382   -2.80212683783017    0.24901439805880
H          -1.97594110985274   -2.34656061845435    0.70525653805830
H           0.29766781671343    3.03927334608659    0.39540124369784
H           1.25870990497105    8.71620728951902   -1.93778226697123
H           2.66261716206390   15.25180274178545   -3.13249250038137
H           4.44188534458898   21.19939943500799   -3.03330343491458
H           6.45373505256465   21.78025670813204    1.17176704313884
H           7.32989718166868   23.98773183377952    1.72729830924673
H           7.08770324904230   25.87606992025948    0.12191650241392
H           4.16174032206292   26.89192353093965   -4.46765462554370
H           5.70937590913283   26.47900026053701   -5.20040071121088
H           5.66150842922933   27.56331828391991   -3.79570400652637
H           3.82350824463893   22.95472213372832   -5.04746944844395
H           4.81116928619026   24.21533872144826   -5.80717905154379
H           3.26696228870265   24.63893796758421   -5.07703687093644
