95
 SCF done       -181.294945568028          0.000903995705
C          -0.96756801876735   -1.22866856553320   -0.82377529860295
C          -1.15727768501606   -0.27342812832574   -1.78691180759672
C          -0.66092995567354    1.01908220739622   -1.61501533006113
C           0.04111861591872    1.39914173246409   -0.48230062583454
C           0.25203696844704    0.41511729509643    0.53188958261571
C          -0.26286535669673   -0.89568052891515    0.34694441892312
N          -0.08439846275726   -1.83976894190245    1.29645140963816
C           0.56951712725336   -1.53021338224481    2.38333345782698
C           1.09533829868185   -0.21594276839661    2.57127546270390
N           0.92642334154587    0.70697130412406    1.66084488155184
C           1.84952717281759    0.15828554314823    3.80103489373385
C           0.74350067370845   -2.59353610653224    3.41476511323611
C           0.52951137615479    2.74618885681066   -0.34254895656685
C           1.27286774618939    3.28746406442946    0.68412256806119
C           1.55371830086839    4.63988088465033    0.48683076397996
C           1.01957298461523    5.14022125268975   -0.71324824912203
S           0.17690604966778    3.94344377265022   -1.59081792152517
C           1.34779816170510    6.51221652827437   -0.81510889047324
C           2.09319723522872    6.88451585077998    0.32318574020817
C           2.27287252671560    5.70578085904844    1.16104515310834
C           3.00526593457821    5.60280826976049    2.30676105840337
C           3.78926286014663    6.66118271912366    2.81639703146685
N           4.47525962258162    7.48381427334481    3.22352744021185
C           3.07446719100050    4.39946679318690    3.03976506416707
N           3.12980026306012    3.42975471850513    3.64995691560943
C           2.41651602661011    8.23479513315352    0.34885430196990
C           1.93918793064874    8.89831625722459   -0.77607915700665
S           1.08042032483792    7.82256453833097   -1.87529465077640
C           2.06919602067621   10.26944923981082   -1.05776602084788
C           2.55514829343269   11.26511898633138   -0.19845091272731
C           2.55528625472518   12.57536534231065   -0.79502364937073
N           3.06488855724356   13.62423056166572   -0.14629396248417
C           3.49800191753513   13.42065428293805    1.07829413172063
C           4.15390048698515   14.56194921240019    1.76411176726320
O           4.40549579714804   15.60659557001313    1.20249147995737
C           4.51371862233986   14.31415961668672    3.17169405404872
C           4.31792132055730   13.14715968827083    3.79419088558371
C           3.70324427650788   11.97113541069382    3.15322623012510
O           3.45547735881508   10.95265340914825    3.76243146692342
C           3.37289833581946   12.14609265115430    1.71679449886989
N           2.93494092336075   11.08933169372465    1.06868461093146
C           2.02986928753387   12.58811029117052   -2.09474732474446
S           1.59384923338368   10.97559237672912   -2.57243924435770
C           1.83957218253453   13.71068815530715   -2.91946628473622
C           1.95481571757842   15.04349185102469   -2.54053966286115
C           1.66464390762428   15.90237747064566   -3.59254626683451
C           1.35406491452570   15.22795960033848   -4.79167363126033
S           1.37993012909482   13.53127413611340   -4.61009999163689
C           1.10394044694131   16.18788912457425   -5.79992122109498
C           1.24639129731557   17.47058441066489   -5.24317999555190
C           1.57148584853617   17.33655838390713   -3.83441878903720
C           1.68071453131190   18.34146100204029   -2.91906227853654
C           1.54681403508537   19.69786210345161   -3.28313757733400
N           1.44052605804853   20.80328147588729   -3.57118177291435
C           1.86619771756725   18.10796736021923   -1.53862853134039
N           1.96589998839997   17.94886778263815   -0.40805282889115
C           1.00588493153301   18.49168451649157   -6.16372972254790
C           0.68580831863278   18.01061994611447   -7.41490102851678
S           0.68196267469101   16.24625168070536   -7.45225364576847
C           0.36511503370711   18.75174312400220   -8.60690085666948
C           0.18152748842323   18.09719685334452   -9.81428755124927
C          -0.14019652885808   18.77638560563880  -10.98979893510640
C          -0.29388594211702   20.13740570834754  -10.99060642904092
C          -0.12223148801208   20.85065844565977   -9.79064014285655
C           0.21338236182867   20.17208331584112   -8.58883034570897
N           0.37467986093954   20.87828934083450   -7.45313147479226
C           0.21915620406391   22.17634502179007   -7.47106815798708
C          -0.12487014410369   22.85300137442877   -8.68060868671519
N          -0.28423848101543   22.19165487782565   -9.79508149630319
C          -0.31798890550406   24.33159641991809   -8.71854659295878
C           0.41224827826491   22.91208247175038   -6.18943213827286
H          -1.34145204827915   -2.23448007144390   -0.92854839867488
H          -1.69589936741412   -0.51185244962464   -2.69177284556707
H          -0.83019283971605    1.74908860814275   -2.39438894372919
H           2.71162048296713   -0.49451095732830    3.92908458095183
H           1.21447357182852    0.04794756941884    4.67918167893104
H           2.18807136069719    1.18856317375724    3.73240413273822
H           0.26640995820142   -3.50753923521133    3.07329805523594
H           0.29664773130104   -2.28218520324549    4.35775121660749
H           1.80156033436574   -2.78163526993524    3.59060151325280
H           1.57420077965595    2.69524236669273    1.52778251309886
H           2.95154004863838    8.74950029637146    1.12670534073364
H           4.96470853003510   15.15498732413391    3.68139646152335
H           4.59841762746187   13.00744340747890    4.82956302940082
H           2.24323292238748   15.32721321973578   -1.54436832297737
H           1.05030384320513   19.54591553592606   -5.96425652201445
H           0.29383513197042   17.02235714990360   -9.84857044191783
H          -0.26895977099576   18.21307256227365  -11.90192372940767
H          -0.54472112940106   20.68821419778114  -11.88286867661022
H           0.59506659992551   24.84110074740385   -8.41451386813654
H          -1.11140564843779   24.62719666856815   -8.03379671439138
H          -0.58082809673166   24.63400857993892   -9.72802509678788
H           0.68702657055688   22.21883757257374   -5.39907372421749
H          -0.50521463387028   23.42845315226063   -5.91002654065624
H           1.19584366453471   23.66047672949958   -6.29848104166067
