90
 SCF done       -161.702548361497          0.000310030733
C           7.95276647967805    4.11148912597227    5.57765608362745
O           6.65951550327059    3.82789418190049    6.06242971075074
C           5.92275777079395    2.79732734320442    5.58206509046714
C           4.77562744647340    2.49770773872657    6.40612461335428
O           4.45242133933366    3.27750326764126    7.47659331839679
C           4.48957990049750    4.68707111969287    7.34710869723188
C           3.97962538742187    1.39186589587282    6.18279399786764
C           2.81706103018367    1.07087720298026    7.01765672219910
C           2.89471597833506    1.02465371010092    8.39011544792876
C           1.79092453941254    0.65574139552691    9.17067632366494
C           0.60166455704909    0.30999532519450    8.58936534927195
C           0.47891558671243    0.35309759880787    7.18834498810603
N          -0.68621319924811   -0.00271691309562    6.60484168041243
C          -0.77921388726838    0.06148725186895    5.30334363473288
C          -2.06464234427067   -0.37663164340027    4.68151485540898
C           0.30129569611317    0.55553086233367    4.51297692140570
C           0.17521969844504    0.71651782892462    3.03308499514357
N           1.43788959800544    0.89532584239714    5.05867175775551
C           1.58063477939163    0.76383787861618    6.39307563678516
C           4.31305853835586    0.55226179963873    5.09750191937430
N           3.72098168289213   -0.58172763475023    4.73421870408582
S           4.43502561370675   -1.13253023324877    3.40298675833622
N           5.54844887734970    0.02497624365920    3.23142963464547
C           5.39951440461304    0.89850263213795    4.22673215822814
C           6.20194765314579    2.03772166439270    4.46332627617434
C           7.25949916497171    2.28855970811056    3.47177669014078
C           8.29592988875662    1.43382032959602    3.26273281664174
S           9.33815760890458    1.94020821313590    1.99258034450100
C           8.34198221796698    3.31241775128346    1.67153324289714
C           8.77900910113195    4.38239767885581    0.78169674154625
C           8.99163133311325    4.28418833673635   -0.58015428566017
O           8.65955468601309    3.18216541383535   -1.30449228558107
C           7.51095442669123    2.44011501483907   -0.93678063823076
C           9.59106180566425    5.36887704029713   -1.31429910134026
O           9.96862865571455    5.27635970594792   -2.61195736390256
C           9.22714419506874    4.52183515231808   -3.54807747716399
C           9.92063680249096    6.56069328108672   -0.69095632404805
C          10.47542636162151    7.69282014575405   -1.44550264681589
C          11.64169296240716    8.30987438889831   -1.06100901581824
C          12.16866864550235    9.38871970513489   -1.78417865976695
C          11.53395544620653    9.86555428555040   -2.89805098776090
C          10.32314210429590    9.27765619174960   -3.30899452500871
N           9.68192178777581    9.75110487265240   -4.39933038447206
C           8.54433659757675    9.20714973246151   -4.74213185508451
C           7.86319517648523    9.74264527493394   -5.95883131742011
C           7.97048695410282    8.15363400989088   -3.97009442991846
C           6.64382220626508    7.56215680867180   -4.32016241606588
N           8.58404116714833    7.67112938038863   -2.92258506034507
C           9.77737381930804    8.19320388572272   -2.57349113435254
C           9.67280096618167    6.68978689208363    0.68847485112513
N           9.89940748830987    7.74941215733433    1.46310029447882
S           9.43468185498479    7.40207222931410    2.96324183377553
N           8.92744887607621    5.88872531732715    2.71234126290878
C           9.09394972898922    5.60185456154927    1.42245567654344
C           7.27067872857527    3.36777391171442    2.53486616482457
C           6.22532626083456    4.37543995825817    2.34158463113476
O           6.02905181622255    4.95053551701937    1.29563138718341
O           5.46045109634087    4.59663012330934    3.42065036073961
H           7.93323389855791    4.61843287067157    4.61020685474522
H           8.55992951524740    3.20655459279410    5.50744119300444
H           8.38995207786264    4.78124533076938    6.31896917335814
H           3.68411027423275    5.06301132299989    7.98027808286721
H           4.31884937614921    5.00048088567234    6.31639843066402
H           5.44341421060759    5.09093676584295    7.69268630562717
H           3.83024662825927    1.26243729998056    8.87171014229139
H           1.89610751238354    0.62981252295569   10.24554048838794
H          -0.25207750211292   -0.00326404010922    9.16974585153373
H          -2.73970164963978   -0.72053154836605    5.45979784662902
H          -1.88637997830761   -1.18536192580471    3.97439860477569
H          -2.52816348850847    0.44768851197152    4.14134736492495
H          -0.64938768960865    1.38478158047410    2.78879581722077
H          -0.02035975393422   -0.24669843404624    2.56405614963540
H           1.10079086262222    1.12557537363912    2.63813524042843
H           8.51316951091484    0.53073010948777    3.79680831549003
H           7.09613541023433    2.05400275069058   -1.86926026781790
H           6.77242910107805    3.07482173069159   -0.44331584977495
H           7.76671230650122    1.59828556062346   -0.28930892702490
H           8.15407516020684    4.67276235596848   -3.42061156712915
H           9.46154497237764    3.45694866947222   -3.48721289245858
H           9.53068044442096    4.90668303733436   -4.52248393320004
H          12.16749163595456    7.94715611894292   -0.19095028971332
H          13.09316148285329    9.83872420291341   -1.45305120867266
H          11.92766411679182   10.68674635496921   -3.47635666202699
H           8.48111625385944   10.51775449451138   -6.40280207230736
H           6.89357051922537   10.16368222082356   -5.69613648618488
H           7.69996773126048    8.94832244551100   -6.68564596301237
H           5.87905029562836    8.33619858441928   -4.35829997893167
H           6.37086338978568    6.82602435157197   -3.56930275252945
H           6.68714233838693    7.08271185285900   -5.29757492827401
H           4.78026847459808    5.25268758878174    3.20217625240854
