65
 SCF done       -151.902943134867          0.000263476174
C          -0.48986139979992    0.34719486274479    1.36801703542267
F          -1.24892390060714    0.97497328906416    2.26990922024721
C           0.32452004581360    1.08258024791803    0.51343529105763
F           0.36316770666837    2.41349851623838    0.58612480542804
C           1.09508185540719    0.39761037409898   -0.41971296423950
F           1.88471132674318    1.07295431383211   -1.25764599068660
C           1.05126117803919   -0.98779198387577   -0.48360754131139
F           1.82664534421479   -1.57603277460873   -1.40227233684162
C           0.24940625890211   -1.76790120360800    0.36884523620177
C          -0.52394088062200   -1.03760266082679    1.28983171719582
F          -1.35092755104642   -1.66380476811943    2.13667620087727
C           0.22527485630492   -3.20901481811081    0.30173385117429
C          -0.34765755765224   -4.08637867831835    1.20293795543467
C          -0.18111227374945   -5.41538152685207    0.82028448954673
C           0.51863645601263   -5.57805430216349   -0.38195511670617
S           0.98535488484974   -4.05787221979884   -1.04072024303009
C           0.68684091505666   -6.90696210106719   -0.76428941492530
C           0.11462233132767   -7.77962684444345    0.14313702242169
S          -0.64341631642340   -6.94049865783172    1.48831227406476
C           0.07761995719531   -9.20718063771871    0.10403191004109
C           0.66448719899621  -10.00248622624817   -0.90491516029400
C           0.58443338229455  -11.43866018193595   -0.87735660936611
N           1.15814677482016  -12.15319996582433   -1.86473082509079
C           1.77703140143346  -11.55116463445002   -2.82596364363691
C           1.85908487709239  -10.13516569380651   -2.85145303871800
N           1.32204223299511   -9.41048246662596   -1.92744799885056
F           2.49524742903951   -9.50366032919050   -3.83670572761202
F           2.32680389673367  -12.29346664713713   -3.78210985667990
C          -0.07600777337861  -12.16317794854540    0.14276525739921
C          -0.66432751395057  -11.36869381813663    1.15458512179886
C          -0.58062913245204   -9.92844231848586    1.12437699378111
N          -1.19935457832339   -9.37755323854689    2.16902792422594
S          -1.81970699571934  -10.53308393751654    3.09078202198560
N          -1.34248687767535  -11.79352487090717    2.22273391179731
C          -0.13769464390267  -13.58203914448317    0.13934691986311
C          -0.76921839991357  -14.37998620379976    1.08362562524941
C          -0.64246781107461  -15.72822010983805    0.78204204509375
C           0.08495185721246  -15.98971217364440   -0.38684685943414
S           0.61863283321849  -14.52624051374830   -1.13178673360793
C           0.20640613656179  -17.35126170905729   -0.68064916112355
C          -0.43223353646937  -18.14443209473037    0.24150561669419
S          -1.18963351124702  -17.19514277244145    1.51493845429127
C          -0.42805909709238  -19.59314306883980    0.26240067734127
C          -1.47324365521344  -20.33813904745648    0.72558735342228
O          -1.46562167795259  -21.67965842035015    0.77540516878886
C          -0.37257654101069  -22.37125489041291    0.37235841244958
C          -0.41008983373792  -23.76241144400567    0.47002118186255
C           0.68221517356869  -24.49861000665299    0.06685184918000
C           1.81702523948795  -23.86560896823308   -0.43546109242611
C           1.85286317493568  -22.49394428128057   -0.53433991630606
C           0.75700929168017  -21.72549091157800   -0.13151474562223
C           0.79170781206574  -20.25996905541253   -0.23927884495880
O           1.75410679264617  -19.66683892288816   -0.69197581068617
C          -2.77847320302833  -19.79586920886970    1.21214326552468
H          -0.85249231675073   -3.79683164550259    2.10336010545248
H           1.19576654155680   -7.23514680295000   -1.64905549935133
H          -1.28448728239290  -13.97625005236536    1.93413365886958
H           0.73893859663309  -17.74447243119191   -1.52521643953229
H          -1.29769203756804  -24.23384061607105    0.86128704376314
H           0.65638540660152  -25.57502267610712    0.14219678051047
H           2.66637163877180  -24.45417297838246   -0.74587389356174
H           2.71581517020662  -21.97262406195445   -0.91960989656892
H          -3.11240933999361  -18.96483653224670    0.59719360558203
H          -2.68515381136112  -19.44422380366816    2.23876138463815
H          -3.51837652496489  -20.59234160102527    1.18796797249150
