109
 SCF done       -197.178244023542          0.000801551616
C          -6.96133264048600   -2.98315322825220    3.22902323737661
C          -5.73416187562619   -3.09184111110816    3.87594150024422
C          -4.64580572049046   -3.86888389998563    3.33601421155059
N          -3.47732731000304   -3.92344963930967    4.01070455204721
C          -3.37037671922950   -3.27533245602142    5.13524090357716
C          -4.44055936294487   -2.52010226121213    5.66581455414925
N          -5.58246443881252   -2.43192582164906    5.05365732895914
C          -4.78196975985700   -4.56756670316138    2.10810504731463
C          -6.03417435856639   -4.43965417228385    1.47016102485102
C          -7.11404131918642   -3.65457845979542    2.02573955881764
N          -8.20144527460116   -3.68425603786036    1.24018234209874
S          -7.89247740230848   -4.59263745351496   -0.03930220251007
N          -6.38165667257660   -5.00328676806339    0.31126056686251
C          -3.75198856998305   -5.35107127501396    1.50996492032020
C          -2.47514830662935   -5.62344631458098    1.98314812988164
C          -1.72015338888113   -6.40782871835907    1.12397471316473
C          -2.42900282964598   -6.74774658438318   -0.02900260639006
S          -4.02324883547326   -6.10813181440230   -0.04569353762410
C          -1.73409837629859   -7.52205797156738   -0.98764776002005
C          -0.40920872653676   -7.84071884041374   -0.68872494030337
Si          0.01612322965180   -7.14794072572427    1.01993360769263
C           0.33976133736852   -8.53801795107319    2.25682372965346
C           1.13604480580774   -8.32090033901032    3.37713421435892
C           1.38255723287540   -9.33791484313660    4.28138113638649
C           0.83360850102391  -10.59322285348109    4.07913035398632
C           0.03734187981263  -10.82474670083443    2.96982280956951
C          -0.20633975461316   -9.80505457248003    2.06822302034127
C           1.37884456406982   -5.84499369016872    1.04497271857876
C           1.08623578787872   -4.48454697450805    1.06826474254802
C           2.09814339715057   -3.54219106292202    1.10930546846542
C           3.42227281426441   -3.94662051382455    1.12731382025946
C           3.72919854169835   -5.29732026272288    1.10421735451293
C           2.71485015556043   -6.23591182563272    1.06396349317650
C           0.18467531538144   -8.58313019147656   -1.70386243777371
C          -0.67321289453109   -8.83211482717708   -2.75596428286716
S          -2.24872807282250   -8.14527547286259   -2.50616880777896
C          -0.40881482358415   -9.55245265207165   -3.96436402256953
N          -1.42672019579139   -9.72969808038588   -4.80228055379408
C          -1.14309388952634  -10.38678614119001   -5.92450947663986
N           0.07809460572754  -10.84486798780213   -6.23773602561095
C           1.00386637803945  -10.62364532315917   -5.32873253068844
N           0.83744077066242   -9.99959091263716   -4.17998344953982
C          -2.20818725988267  -10.62462915810249   -6.84867644406122
C          -3.54511117981464  -10.31375622759676   -6.68882383174289
C          -4.32146683742787  -10.70344543000646   -7.77288295477361
C          -3.55406410475397  -11.31266778572247   -8.76772817747886
S          -1.88538793823704  -11.41086512375371   -8.36243457540268
C          -4.24488151967700  -11.74557724283945   -9.92357576918024
C          -5.62557049307747  -11.53423923656583   -9.93055744254780
Si         -6.13652022626107  -10.71736408098781   -8.30581322861140
C          -6.92340069614858   -9.01625927576190   -8.50613438922095
C          -7.30227093506900   -8.52570097266626   -9.75159840613133
C          -7.91245675725459   -7.28960916110133   -9.87052972010340
C          -8.15186581107328   -6.52285722805176   -8.74281507307217
C          -7.77975273541834   -6.99803299598588   -7.49578539204766
C          -7.17282328310222   -8.23478669370066   -7.38108885095841
C          -7.16304949270943  -11.83918311791142   -7.18434627575777
C          -6.61169549375523  -12.99598126074226   -6.63900525900633
C          -7.35772459628980  -13.81714541027726   -5.81404942417153
C          -8.67253243545041  -13.49433963356273   -5.52084462966542
C          -9.23513544564155  -12.34806504894518   -6.05664854070307
C          -8.48481178610857  -11.52895840497297   -6.88094294993018
C          -6.20648870400299  -11.98044037217663  -11.10755460708962
C          -5.29409190924178  -12.52501919623031  -12.00248931027851
S          -3.66940299721046  -12.49460175402293  -11.36414717762160
C          -5.56023189285257  -13.05462523544599  -13.29435139108248
C          -4.51740392010677  -13.59025557669075  -14.08731843648968
C          -4.74709562357915  -14.13094214733967  -15.39913882492639
N          -3.70514449680053  -14.62972058381524  -16.11256330242448
C          -2.52238598939115  -14.59829043972628  -15.57477370097097
C          -2.29520815077393  -14.06681551969154  -14.28357153500788
N          -3.27369277593377  -13.58204346140892  -13.57462032083335
C          -6.02116247138157  -14.15216277467367  -15.95573345040448
C          -7.06229892734854  -13.63124272103634  -15.19910589332495
C          -6.84747496118870  -13.08137472343760  -13.87377610951202
N          -7.98695821832360  -12.63595089139190  -13.33816941065086
S          -9.18551236677471  -12.88203472600408  -14.37726195089173
N          -8.35151092827117  -13.55962626140926  -15.56112792877929
H          -7.75295121986344   -2.39461603689003    3.65920989369557
H          -2.41844024750282   -3.34339464561201    5.64498083073076
H          -4.34430781285642   -1.98660068892594    6.60217237442513
H          -2.13246216970377   -5.24424912618863    2.92726573532012
H           1.56952490956252   -7.34408045399604    3.53660315254058
H           2.00489580814847   -9.15314521992986    5.14511965481758
H           1.02693521105372  -11.38929027059461    4.78335511329012
H          -0.39167388429292  -11.80293937500931    2.80725982830162
H          -0.82463316987840   -9.99126781416166    1.20173920592288
H           0.05444238005932   -4.16442593441268    1.05798196905983
H           1.85432038516821   -2.48973560100800    1.12861941062642
H           4.21357298352061   -3.21191550296069    1.16015072232492
H           4.76109732796742   -5.61727843832117    1.11901503861149
H           2.95827843079998   -7.28856672541632    1.05080899565044
H           1.19787977577826   -8.94087335756657   -1.70236580249876
H           2.00053955221162  -10.98984999771449   -5.54613631919036
H          -3.90877603447464   -9.82492335033285   -5.80356573121370
H          -7.11724410643851   -9.12044503597889  -10.63416912853412
H          -8.20268907516928   -6.92293093214674  -10.84461099679424
H          -8.62760899682355   -5.55731088094159   -8.83462932645521
H          -7.96464274515180   -6.40303751626353   -6.61300916145992
H          -6.88854416970769   -8.60447587215322   -6.40648704933676
H          -5.58542049632185  -13.24946749527808   -6.86380634960355
H          -6.91477366911902  -14.70999871426453   -5.39693968055863
H          -9.25659560975792  -14.13446492780059   -4.87571934162604
H         -10.26029201379220  -12.09235949654805   -5.83035645086083
H          -8.92587589194445  -10.63302560174678   -7.29385798109980
H          -7.25542432973684  -11.92572277421238  -11.33472387685916
H          -1.70917111170960  -15.00141949114932  -16.16360738960692
H          -1.30976835348981  -14.04359328724870  -13.83997575477398
H          -6.18522609415716  -14.55776212630238  -16.93889332664040
