113
 SCF done       -205.185262550680          0.000463580249
C          -5.23978472442741   -6.55472427248037    6.17607577181453
C          -5.61248032058153   -7.07331180706289    4.94085951894155
C          -4.66175438661239   -7.20114860540540    3.87060015389310
N          -5.04945339562681   -7.70588082969829    2.68601699844933
C          -6.29040381687285   -8.07157851290523    2.53171063926934
C          -7.22485451106775   -7.94531157748511    3.58499451314657
N          -6.89823436903080   -7.46389232363086    4.74766517572002
C          -3.30757668016284   -6.81157440115162    4.00891796601319
C          -2.94496843268072   -6.28441665589305    5.26805053238379
C          -3.91737597650552   -6.16305286156337    6.33795408286911
N          -3.37136006197077   -5.64209000357459    7.44595974973539
S          -1.82395888517840   -5.34299128276304    7.16988665521473
N          -1.74222702877220   -5.84691006156554    5.64735995873051
C          -2.39647722804169   -6.95566266941019    2.92996123147251
C          -1.04752235877550   -6.62000193565757    2.91058347626572
C          -0.42979111422780   -6.88383559901489    1.69994321850477
C          -1.32225996272147   -7.43221721299851    0.77290358893251
S          -2.91778507502049   -7.61910315531049    1.40143093383251
C          -0.78485463662869   -7.73097917834499   -0.49543805083631
C           0.56478022348742   -7.44060021290550   -0.69768683586955
Si          1.27133808385224   -6.70432786944753    0.89511046051631
C           2.62399906062027   -7.77223135331274    1.66011159022599
C           3.10612620855312   -8.91261756522909    1.02526295047186
C           4.12007010592788   -9.66428122332568    1.59171304583242
C           4.66775368024361   -9.28688032999370    2.80602594377727
C           4.19727789124519   -8.15442345257071    3.45052389179916
C           3.18549557303044   -7.40486408079023    2.87982509885959
C           1.79803373405313   -4.89830009162579    0.74220173510760
C           0.85254171290255   -3.88273043536295    0.62660388159410
C           1.24169510760281   -2.56027836628451    0.51933780114062
C           2.58717487041017   -2.23139018053232    0.52532189289340
C           3.53912458291118   -3.23065714676269    0.63989088603489
C           3.14549175583152   -4.55204825452594    0.74758018918589
C           0.98871709013078   -7.77904390554668   -1.97588791652189
C          -0.01191388337217   -8.32949058488219   -2.76083597432259
S          -1.52565422451808   -8.42295577472770   -1.88608892285227
C           0.08679242501780   -8.79024503200833   -4.10526253730834
C          -0.97924093004593   -9.33961362270223   -4.80550308847551
C          -0.88648675119286   -9.79400684288162   -6.11902874253362
C           0.28095419397673   -9.74274820780965   -6.86936584701707
C           1.40456361839367   -9.18609398629021   -6.19550733843608
C           1.30944844799416   -8.71893683681262   -4.83074732768681
N           2.50084300936098   -8.27268892845687   -4.48948836873322
O           3.28716761826537   -8.44255397758976   -5.55307778487959
N           2.64684829884064   -8.98988844394207   -6.58694642400501
C           0.37253273076136  -10.21245174699058   -8.21116463863634
C           1.47749320527467  -10.18451979588376   -9.04690888499509
C           1.23702863445795  -10.73440938311859  -10.29885579950595
C          -0.07284044176933  -11.19736107742579  -10.42929682552305
S          -1.00652473461441  -10.94174904551545   -9.00618366699219
C          -0.42184310016299  -11.79519251445380  -11.65718925333699
C           0.59727504646787  -11.86679127830870  -12.61255003228236
Si          2.16894244807814  -11.09174886212286  -11.90719185141052
C           3.59056479846928  -12.30193976338385  -11.63012467118304
C           4.72170264038618  -12.25989781167824  -12.43877662825029
C           5.77048428905105  -13.13882748505030  -12.23865817285571
C           5.70395314320490  -14.07657423024304  -11.22199946997382
C           4.58444405376459  -14.13082300170206  -10.40846819021420
C           3.53782585579659  -13.25074680906391  -10.61272291518939
C           2.72473823382400   -9.55799590534151  -12.85295345465297
C           3.80852008307393   -8.81537757131111  -12.39312658926827
C           4.25579967966169   -7.70700022077047  -13.08802539861315
C           3.62554359564326   -7.32402547700685  -14.26057803993451
C           2.54690925236977   -8.05337064549975  -14.73095506919026
C           2.10092739405529   -9.16042797873432  -14.03134128062787
C           0.16170442173593  -12.46769372270875  -13.78136423946217
C          -1.17209557957458  -12.85772613633051  -13.74110318271186
S          -1.90987740355003  -12.47314965816859  -12.20624916194658
C          -1.91789559442719  -13.49225221594557  -14.76880869626597
C          -3.27401863780122  -13.84578016704129  -14.56747897009057
C          -4.05869439023630  -14.49457752343816  -15.58188837926478
N          -5.35446161157407  -14.81102712911877  -15.32914054036074
C          -5.84307711763731  -14.50942879196688  -14.16272757639517
C          -5.07242036054971  -13.86994332468721  -13.16484374045010
N          -3.82611801040841  -13.55450805830347  -13.37638422228856
C          -3.51464356541754  -14.80568700999423  -16.82321897335626
C          -2.18752805307530  -14.46479338858190  -17.04879384029138
C          -1.38099367876954  -13.81041247938658  -16.03581502290825
N          -0.14161976885814  -13.57568483149436  -16.47260979873848
S          -0.00557876110834  -14.11589947542100  -17.97889754609162
N          -1.49153483736628  -14.67569543085029  -18.17502707318942
H          -5.95728329237129   -6.46331335288044    6.97282851623946
H          -6.56703127660086   -8.47228935930478    1.56668524074855
H          -8.25531858932457   -8.24881434438383    3.45592112885576
H          -0.56078044298483   -6.19692272388807    3.76979953255380
H           2.68401934340995   -9.21049184690838    0.07647770892064
H           4.48557992944301  -10.54551177810729    1.08455855795820
H           5.45988511975042   -9.87267666506879    3.24919785250092
H           4.62218857831437   -7.85598559341059    4.39810543460132
H           2.82455175326487   -6.51911798395754    3.38249562969029
H          -0.19826948551436   -4.13545531861326    0.62509547124258
H           0.49593083426106   -1.78330400931448    0.43214280873707
H           2.89290466856942   -1.19863038462316    0.44203454968428
H           4.58972369814865   -2.97847171070080    0.64567472907945
H           3.89075692982438   -5.32883427713093    0.84082737771369
H           1.98677893618265   -7.63978667376350   -2.34938261100430
H          -1.93212676391046   -9.41965198931539   -4.30281898756972
H          -1.77101423654122  -10.20870101561303   -6.58027154404365
H           2.41677058803045   -9.77289306015786   -8.72637628201681
H           4.77890591134231  -11.52617281186660  -13.22992389473607
H           6.64235976613196  -13.09248746452969  -12.87506348346978
H           6.52331083023574  -14.76231674613563  -11.06277659711893
H           4.52981121777604  -14.85931101698075   -9.61250767940393
H           2.66761441616180  -13.29346511858031   -9.97336241100800
H           4.30580924964476   -9.11420627821131  -11.48185528985761
H           5.09781253476525   -7.14082622139843  -12.71727746968245
H           3.97500494111751   -6.45961126102657  -14.80622815013010
H           2.05346104391776   -7.75885463204111  -15.64585956095316
H           1.25976266200847   -9.72700230954884  -14.40325098676104
H           0.77067682089927  -12.63348317869147  -14.65109304478483
H          -6.87777009075233  -14.77168348002743  -13.98592570197379
H          -5.48384726298668  -13.62023676031505  -12.19699524979888
H          -4.10859072998364  -15.29222103421001  -17.57721217091896
