85
 SCF done       -187.285871505719          0.000326232731
C          -1.57941271519989   -3.40203445217522    6.46034344658538
C          -0.51380804025021   -3.50023448076631    5.56964243646297
C          -0.60758917620157   -4.31471016945232    4.39081437437512
N           0.43349901122210   -4.39241223119468    3.54165778685948
C           1.51707396255449   -3.72158920855114    3.80987033476273
C           1.60877964656103   -2.92072721185238    4.97335440646097
N           0.62903622152395   -2.81407621794016    5.82064663190752
C          -1.77003302089142   -5.05336712414950    4.07117115017250
C          -2.84086718810952   -4.94619730546144    4.98233341748912
C          -2.73254298678276   -4.11896808656039    6.16894870846706
N          -3.85947266994361   -4.15451582553532    6.89590045777908
S          -4.91656225115536   -5.10902101461760    6.17298375739183
N          -4.03478087269274   -5.53887647700232    4.90571218164275
C          -1.82210825660903   -5.83572922401971    2.88623534464706
C          -2.89217827412814   -6.59943457170355    2.43585503970301
C          -2.61355919949654   -7.21821775709143    1.22579914638566
C          -1.31452020802634   -6.92441481639870    0.74975673101950
S          -0.44441903602414   -5.88870513079173    1.80199325878083
C          -1.13937816773423   -7.56659364381384   -0.49297888508498
C          -2.32538982991102   -8.27060667473005   -0.81001073242157
C          -3.28487353366924   -8.07762981795517    0.26620394735452
C          -4.54788939980730   -8.58692852056857    0.34822406250817
C          -5.09507564985855   -9.40711381698614   -0.66105582560560
N          -5.55031858596901  -10.07408169186702   -1.47537947493784
C          -5.39624849227006   -8.32625022946859    1.44505249321898
N          -6.09683650952332   -8.12145338212053    2.32949117085996
C          -2.26173482522678   -8.90715713599896   -2.03785432677345
C          -1.03846292026151   -8.69687254135036   -2.67111956588473
S           0.05325438272717   -7.70826641335734   -1.71033794965503
C          -0.66053923633100   -9.13918040548718   -3.96056564136539
C           0.60736962992123   -8.81603448517966   -4.49752851132898
C           0.98016183900436   -9.14910257101247   -5.84823347677245
N           2.18632055556419   -8.80006194814228   -6.30406862914094
C           3.02605910708197   -8.16198481839120   -5.52175216454075
C           2.65584490554521   -7.83129221456743   -4.18016613334796
N           1.47241882625311   -8.16233716769110   -3.71728823604512
C           3.56081391894234   -7.14578079188174   -3.33385805073580
N           4.31369466191866   -6.59060601148428   -2.67260105110497
C           4.30264643916198   -7.80835878255644   -6.02217234121091
N           5.34213683923663   -7.50912112930869   -6.39926817047731
C           0.10433998976089   -9.82267430976531   -6.73114208203975
C          -1.13797927836562  -10.21458724652926   -6.17312853198753
C          -1.51233695794415   -9.87997519546049   -4.81730449874329
N          -2.72727851850225  -10.33810028934704   -4.52002487373389
S          -3.33714820207846  -11.10713669487442   -5.78917459025297
N          -2.10054639614672  -10.89825996081429   -6.78987542538423
C           0.45609228539405  -10.03224594800658   -8.08521567571654
C          -0.32016475045503  -10.64294753351481   -9.06809344523808
C           0.29631420110962  -10.61338967563534  -10.30742642590764
C           1.56010096788639   -9.97719649491316  -10.27842021298564
S           1.98487557134954   -9.43248721899250   -8.71402902604247
C           2.08743242101328   -9.96172805929774  -11.58578116875845
C           1.15916070134694  -10.58798281351639  -12.44980274447927
C           0.01096139769488  -11.02315631318270  -11.67370026021174
C          -1.10235356935133  -11.66815451425083  -12.12741972574803
C          -1.27366600674335  -12.01223015875875  -13.48496093667134
N          -1.42588783394417  -12.29858564085942  -14.58492978947353
C          -2.16206270097882  -12.03291753304449  -11.27029939548714
N          -3.03013701379708  -12.33232204836644  -10.58332523408974
C           1.57783753378527  -10.59123462641866  -13.77247340634954
C           2.81259144551186   -9.97268358049266  -13.92705520616435
S           3.47312839736679   -9.38429509227522  -12.41247948553260
C           3.52441615848597   -9.77832553875694  -15.14131017052667
C           4.77270015596782   -9.11436576456201  -15.14098413337977
C           5.52148955312533   -8.88374792033142  -16.34428549550958
N           6.71339127835488   -8.23957750095888  -16.27853972067883
C           7.13804196331348   -7.84975388657690  -15.11368888638951
C           6.40001248857546   -8.07442575220004  -13.92696393962425
N           5.25293212033458   -8.69033934759952  -13.95753645425340
C           5.04251517691193   -9.31021675383401  -17.58008710840551
C           3.81843676787759   -9.96559755419872  -17.60681202008836
C           3.05179878756871  -10.20606738583544  -16.39911171072627
N           1.91116315331736  -10.84798619056988  -16.66266780924621
S           1.81289886215550  -11.11796172841465  -18.23929327412807
N           3.19110368029828  -10.44820470739690  -18.68997306296296
H          -1.50290354974221   -2.78856708518079    7.34134670334789
H           2.33368826345327   -3.80568881110851    3.10705628875289
H           2.50885087248683   -2.36413573304785    5.19636098258175
H          -3.81194521583876   -6.67032582341196    2.98729024617564
H          -3.04062278876351   -9.49292600246915   -2.49055037416686
H          -1.28364315147456  -11.06487324244113   -8.84806247263450
H           1.04067946953874  -11.00460493731586  -14.60653904194326
H           8.09093752421822   -7.33888007394077  -15.08816676905381
H           6.75610671654467   -7.74656430930271  -12.96074310037504
H           5.60828912822886   -9.13289750311102  -18.47831765406175
