79
 SCF done       -168.137739349792          0.000599401073
C          -0.39502299940019   -0.92433176013675    6.34088982902880
C           0.42310958077420   -1.32755840833600    5.28341651861703
C          -0.03626572752825   -1.37618309667183    3.98394873184252
C          -1.35804346791172   -1.00532475707986    3.76466303961612
C          -2.17516186991906   -0.59994485454749    4.84443018228585
C          -1.71243295353623   -0.55146384575255    6.14469215257081
O          -3.39905544791758   -0.30266267841638    4.34124810381944
C          -3.27781065186566   -0.53536122083902    3.00310652740494
N          -2.10584921874687   -0.94579028660013    2.62014945836390
C          -4.40092169016961   -0.32681482514602    2.15491656860897
C          -4.44618484834091   -0.51453866746449    0.78696780825170
C          -5.71172126111679   -0.22659589018358    0.27827556078641
C          -6.62219880769711    0.18064210687596    1.27531035321174
S          -5.92033079025358    0.21027288259635    2.83076759883446
C          -7.87663323570745    0.44065446099992    0.67375252872308
C          -7.75922689249890    0.19568868981675   -0.71074334833020
C          -6.39789099500599   -0.22707965326684   -1.00321215045562
C          -5.88299937855178   -0.55417378200860   -2.22279893841808
C          -6.65962864274193   -0.51593796512897   -3.40065090515300
N          -7.28177486369891   -0.49121670826193   -4.36362600299909
C          -4.54057083245482   -0.95357718186608   -2.39688655876450
N          -3.45280398058902   -1.27837599142175   -2.55618672338583
C          -8.94505192495355    0.41128154585946   -1.39721171177910
C          -9.96957329552038    0.81835710643399   -0.54919822982171
S          -9.44956847505949    0.93957365638816    1.12449294863076
C         -11.30784571547519    1.10688765228769   -0.91501947171334
C         -12.26163648745643    1.50197780464635    0.05213204186434
C         -13.64212935259451    1.78386975210149   -0.26092467722948
N         -14.45335576310031    2.21799509905329    0.71330062317253
C         -14.00062295751264    2.34690969195220    1.93626864331709
C         -12.64869717379845    2.00158642385394    2.25980015894766
N         -11.83224862369278    1.60560415550702    1.31481106010610
C         -12.17475997168973    2.09307067497842    3.59128103971981
N         -11.81653178122651    2.17572788266683    4.67612707485085
C         -14.85458118782189    2.85745231130200    2.94717936189529
N         -15.49708421966637    3.28548710213200    3.79252392613872
C         -14.13825010519502    1.63822531020059   -1.58141221940223
C         -13.17450883315470    1.27987162660259   -2.55164162430148
C         -11.79157222509226    1.01838218926962   -2.23984727756676
N         -11.09889828001379    0.69517736938952   -3.33236603691752
S         -12.06571664217749    0.71632776978981   -4.60904618616983
N         -13.42157454637120    1.13370974119734   -3.85358692804038
C         -15.49578821938331    1.82559965369627   -1.95047789371732
C         -16.59322807894788    2.04443338840787   -1.12522283670012
C         -17.77222622999640    2.16504460332254   -1.84576170593303
C         -17.58013346205334    2.04771129213318   -3.23860114129794
S         -15.94905775613334    1.76213331313106   -3.65117450559846
C         -18.83836936592749    2.19576218077485   -3.87167122327662
C         -19.82095355965669    2.40479755833674   -2.88905955430083
C         -19.18715354287727    2.37994335017228   -1.58195503781686
C         -19.79100645562982    2.50055659386490   -0.36508794965413
C         -21.18141275742380    2.70191310340347   -0.23920986843461
N         -22.31241457727841    2.86501688426744   -0.14305929080180
C         -19.06899554604547    2.40488215451798    0.84428029274446
N         -18.48794614187582    2.30648245003800    1.82746280207798
C         -21.10079087827307    2.56225474785614   -3.42587109609195
C         -21.10791180423016    2.47972725620686   -4.80291259357830
S         -19.49672358350530    2.19965874012541   -5.44602123210066
C         -22.23760221553904    2.59260436887494   -5.69633135254640
C         -22.02720853236448    2.65658105816931   -7.08909549879298
C         -23.05670664264409    2.76674915656176   -7.99374402898430
C         -24.34976554650245    2.81387630986014   -7.48661259040142
C         -24.56388595534978    2.74760382005267   -6.09217450294867
C         -23.53617297737538    2.63692073813619   -5.18125591500622
O         -25.90426641876582    2.81004410365468   -5.88729665324460
C         -26.42218295822465    2.90936439781749   -7.12750098064543
N         -25.57852464663454    2.91689559652534   -8.09511733997883
H           0.01235418494390   -0.90334920197885    7.34014099848589
H           1.44386544001898   -1.60858184106878    5.49456003675381
H           0.58921920750470   -1.68646302391877    3.16359455762338
H          -2.34833708333735   -0.23975807145453    6.95725791231735
H          -3.59053443722424   -0.84368018400577    0.22720956022220
H          -9.09612621719961    0.28842625734739   -2.45385476486857
H         -16.50398110241815    2.10883701611953   -0.05705612461355
H         -21.97941686541000    2.74092828843043   -2.83486976547192
H         -21.01101675828696    2.62143966092607   -7.45424335096404
H         -22.87857033069756    2.81608095067052   -9.05488909605597
H         -23.73871433477305    2.57899901285686   -4.12551103419964
H         -27.48818731403172    2.97433288336077   -7.22631008239829
