83
 SCF done       -174.968167805214          0.000290942134
C           7.23945431705461   -1.16284087707441   -4.22545704647704
C           6.18540412382858   -1.00783267034563   -3.37195683349968
C           6.10975170866514    0.34234225597420   -2.86758090905712
C           5.25164568603503    0.89822556204353   -1.92255824439505
C           5.39282348133918    2.23627993389561   -1.58067326595668
C           6.38690362750288    3.03823510658138   -2.16452534255416
C           7.26193791759743    2.49486886579583   -3.07603840759891
C           7.12500617551625    1.15465931707467   -3.41366679519603
S           8.15299514783912    0.26611808875917   -4.49878742134932
C           4.52885999345453    2.80479122469281   -0.61459018486256
N           3.83891156298534    3.27027412410949    0.17282421955532
C           5.28151611611329   -2.07958206299132   -3.05043596385639
C           3.94916688554075   -2.00998889675018   -2.70794196329797
C           3.39375262980423   -3.27614217478443   -2.49890975468101
C           4.31602452083337   -4.31837126143624   -2.69352468032939
S           5.86126228338626   -3.73779684185891   -3.12942757741079
C           3.66490706764865   -5.55680493471086   -2.47614393161770
C           2.32214279075941   -5.29125013575961   -2.13345363073560
C           2.10921766348016   -3.85187629270270   -2.13937484918019
C           0.94999669422594   -3.18519471231514   -1.87019375691910
C           0.87697369286944   -1.77696710230251   -1.91596324125453
N           0.82858825547779   -0.63212480775489   -1.95797771428489
C          -0.24560969152706   -3.85610522089032   -1.53671950981114
N          -1.22220077300031   -4.39354525305476   -1.26846677947369
C           1.58787332120808   -6.44439570435409   -1.90169644731636
C           2.35484401789480   -7.59216576245069   -2.07172051411497
S           4.01533004593767   -7.22918738814910   -2.52158416187301
C           1.91975960703951   -8.93385574934693   -1.94097104529606
C           2.79441302541646  -10.01276339205605   -2.20211845255483
C           2.36582277305776  -11.38667751953980   -2.13359375945640
N           3.23632779644670  -12.36303245349176   -2.40935212505599
C           4.47293218332600  -12.06889273685171   -2.73423142500060
C           4.90002391548124  -10.70361041335301   -2.79763563866881
N           4.05788603926576   -9.73216643375431   -2.53497698522338
C           6.23532280206133  -10.38395346628750   -3.14466353501553
N           7.32077174734944  -10.15301978007399   -3.42837033555229
C           5.37932294464334  -13.11901446641476   -3.02012986131349
N           6.13245948786015  -13.94904979121051   -3.25630364962970
C           1.04529913496961  -11.75114244060656   -1.78859323059762
C           0.17602105030694  -10.67480029553789   -1.48816699343671
C           0.60292972487954   -9.29564540914956   -1.56703444927517
N          -0.38703895194734   -8.46079583045812   -1.25093300962196
S          -1.70464976735690   -9.30057221742322   -0.89324722051747
N          -1.10166050386408  -10.76859664830061   -1.11990017630737
C           0.64164474185000  -13.10952848307143   -1.77704082923554
C          -0.61504632849411  -13.60546993207766   -1.44734284140150
C          -0.68052771192833  -14.98407356962103   -1.58417310615926
C           0.53535645938865  -15.54851277131206   -2.02470354589485
S           1.76164926924318  -14.37846057688250   -2.25098827802075
C           0.34908746392152  -16.94448145839111   -2.15887990635460
C          -0.97412867493682  -17.26687937556737   -1.80379618446337
C          -1.66323650694747  -16.04489709818207   -1.42387948004486
C          -2.95621180420792  -15.91751484908481   -1.00935571987266
C          -3.51791050402687  -14.66865660548078   -0.66791192865087
N          -3.98415033404767  -13.65913089181650   -0.38860072978895
C          -3.81919527245156  -17.02792206392892   -0.89447125922624
N          -4.52225035174920  -17.92883737717735   -0.80124526188267
C          -1.25361217807339  -18.62773557522294   -1.93095114726934
C          -0.15931008240744  -19.33931882058744   -2.38220986016368
S           1.24348861427211  -18.31478034701790   -2.64645707715173
C          -0.08488336694200  -20.73494317424200   -2.65052732413821
C           0.97938312253721  -21.44141587565521   -3.13444301258072
C           0.70339580801596  -22.82176049380726   -3.30375029671182
C           1.54105712952360  -23.83094115191066   -3.77840002870279
C           1.05186194150472  -25.12524630395652   -3.86651374161731
C          -0.26658873369785  -25.43268798315568   -3.48491606202820
C          -1.10387018817940  -24.44653929375579   -3.01435601061435
C          -0.61880542833027  -23.14869772984762   -2.92660165779461
S          -1.48935372895779  -21.75284505875837   -2.37389017663401
C           1.88856396648740  -26.15842787649090   -4.34989995462207
N           2.56530679995053  -26.99602768394920   -4.74240651089756
H           7.52076942340101   -2.06357624810252   -4.73706503845013
H           4.49407728702052    0.30299861192220   -1.43818813615880
H           6.46391071162990    4.07625033065429   -1.87970908275856
H           8.04568528371271    3.08884027099051   -3.51887261390893
H           3.39531165451336   -1.09120569088206   -2.65793224482402
H           0.55028970790572   -6.49006226689725   -1.62655132740959
H          -1.41568436194515  -12.96107803585505   -1.13414130984299
H          -2.19999186636166  -19.09110660069610   -1.71635015114494
H           1.92843734649652  -20.99118169099147   -3.36661305040256
H           2.55445503437046  -23.60426727147793   -4.07361549206241
H          -0.61364756403668  -26.45135207195317   -3.56668208571600
H          -2.11676904945333  -24.67160025109473   -2.71997093535312
