76
 SCF done       -156.394618653194          0.000250011216
C          -9.18888104229425   -9.24438313812048    4.26988910653548
C          -8.21271694052642   -8.29500138503240    4.45438374770759
O          -8.22638909677136   -7.71039348380961    5.67330551604561
C          -7.11882992237442   -7.00736815873153    6.19812837026246
C          -7.29940633238688   -7.93919588371410    3.38852340775105
O          -6.50081718232696   -6.85777003382500    3.63126069559664
C          -6.28843188443215   -5.91341960463786    2.60017979454629
C          -7.28338805116300   -8.63538704715827    2.19031769454551
C          -8.31094986700784   -9.59351461788094    1.99558197332241
C          -9.27262490571381   -9.88381414133716    3.02749030398772
N         -10.08738095437468  -10.80681792406824    2.55188402026281
O          -9.66122246140327  -11.07444946774423    1.31465705246932
N          -8.59291040098414  -10.35925992733228    0.96264993105719
C          -6.27219308213539   -8.49027261118604    1.16667524267307
C          -4.91959647738753   -8.34097343314371    1.35539548533932
C          -4.22745082705082   -8.30757335885054    0.13937610723655
C          -5.05604711994492   -8.42759650408561   -0.97843595288972
S          -6.70893490325454   -8.61164692039892   -0.52403652948629
C          -4.33779297751573   -8.38015695401631   -2.18093233361048
C          -2.96453254409342   -8.22826523911302   -1.96916185727348
S          -2.54484584815049   -8.13997015305648   -0.27946587587603
C          -2.21723705833767   -8.17531135578825   -3.14633688166129
C          -3.01616432587929   -8.28181372179764   -4.26465769117332
S          -4.71379515361826   -8.45078158385808   -3.86174849768049
C          -2.61702592105540   -8.26344713229946   -5.63876964428947
C          -1.29557158955103   -8.17929675776399   -6.07208577938314
N          -0.90173256837481   -8.15100830688122   -7.33491205144767
C          -1.76630269137570   -8.20142182651631   -8.33655546766487
C          -3.15820968992613   -8.29689980384273   -8.05328858189863
C          -3.57517421221591   -8.32972385118125   -6.68052043861341
N          -4.89718598208985   -8.42166712350649   -6.56138593266474
S          -5.54947900616286   -8.46419618283239   -8.03044298307553
N          -4.19181280829544   -8.36644869065838   -8.88832397669752
C          -1.24560405548380   -8.15566495965832   -9.66230779528669
C          -1.92858215975086   -8.16709800537279  -10.85982734564344
C          -1.05548853036220   -8.10291507085181  -11.94348059909578
C           0.29747764218587   -8.04439465109044  -11.57628759009000
S           0.49109380688361   -8.06545457148141   -9.86376129637363
C           1.14462018453399   -7.98085134680634  -12.68787788409077
C           0.43602240864866   -7.99135159846057  -13.89532821779463
S          -1.28905786250140   -8.07766782559927  -13.67040546633629
C           1.25013298310642   -7.93394205225733  -15.02571682847721
C           2.58731793830482   -7.88482855651039  -14.69245034057491
S           2.84553736196779   -7.89777952782963  -12.96061692086670
C           3.68767895329386   -7.85637924922492  -15.61047880419813
C           5.01419934484431   -7.84207450093467  -15.18875220613681
O           5.17709898157333   -7.78336281321512  -13.84487858620065
C           6.30187038139793   -8.32412081324533  -13.18265375306267
C           6.11329828320195   -7.82353383444786  -16.12403474914196
O           7.34950998125310   -7.75743867903596  -15.56454159975964
C           8.47390800594320   -7.71890245446745  -16.41230681957176
C           5.90269055076141   -7.85189247538965  -17.47749831367856
C           4.57543535534181   -7.87331422072811  -17.93281737857027
C           3.46546602228153   -7.86418838904198  -17.01397526989720
N           2.36417211917711   -7.88071934338495  -17.73643766119099
O           2.75319327959393   -7.89768706112376  -19.01324116421685
N           4.07977150692790   -7.89308035024916  -19.15394480593292
H          -9.87468026912708   -9.47467314015191    5.06597522197490
H          -6.17706903408560   -7.51460926997592    5.98451551247247
H          -7.28554220257234   -6.98488258209162    7.27558471858153
H          -7.07316281338348   -5.98453782177032    5.81917605600071
H          -5.32645994033487   -6.07167531182527    2.10647860993263
H          -6.28560763556093   -4.93540620806027    3.08433210272518
H          -7.08321554565904   -5.94886049564065    1.85291012649446
H          -4.45278374836706   -8.30261787645816    2.32308567460780
H          -1.15003371436385   -8.06155753685945   -3.17636712208198
H          -0.48860367964862   -8.13161022969978   -5.35510850076599
H          -2.99935610010612   -8.21922308654553  -10.92141428788044
H           0.90209334257838   -7.92895777669109  -16.04110251167673
H           7.15257065084541   -7.64194197161349  -13.21814546621168
H           6.58943229638406   -9.29037819562273  -13.60071701354426
H           5.98059504994814   -8.45496369987937  -12.14930707664888
H           8.54411278510561   -8.62275610670370  -17.02441135083353
H           9.33523598449846   -7.66296516026317  -15.74885590798189
H           8.45525581331076   -6.83813926383694  -17.06044923358925
H           6.70073010558367   -7.84076559173473  -18.19745612932016
