93
 SCF done       -197.424077774039          0.000466563205
C         -10.09225990081920  -11.17446093590170    3.49498203258996
C         -10.40870774020348  -10.93097380298303    2.18428290563560
O         -11.67673392488612  -11.02665537196508    1.70190579046800
C         -12.71114904383222  -11.39702397213481    2.58429585157009
C          -9.39836169899865  -10.56435650042626    1.22118920099607
O          -9.63425008209134  -10.31392885597858   -0.08706812372463
C         -10.91308535746687  -10.15688123127167   -0.66132115973489
C          -8.05102752122754  -10.46468058927569    1.57210280112936
C          -7.72160768431233  -10.72513323998352    2.92954995886097
C          -8.74656846247617  -11.07057219272881    3.87920775826385
N          -8.16131322240252  -11.24800094996013    5.04698621975895
O          -6.86289417075521  -11.02893851578980    4.84452305476631
N          -6.57713508440049  -10.71423712390426    3.58183642772049
C          -7.03182308868179  -10.11915103556711    0.62880983801739
C          -5.67529538007097  -10.01297949376494    0.89253131621454
C          -4.94886808506286   -9.66631869496130   -0.24299223210373
C          -5.76042242345161   -9.50167402759704   -1.38363624248290
S          -7.41175413363703   -9.78032407652576   -1.04772941751903
C          -4.93477323661866   -9.16977745424235   -2.48272352510186
C          -3.59535105858575   -9.12986883056623   -2.03939600358769
C          -3.56469611711856   -9.41853009368037   -0.61372648862313
C          -2.46959521830833   -9.42309275861581    0.19810090544540
C          -1.18125915699218   -9.10507730276355   -0.28453414050519
N          -0.13756320622522   -8.82467919376328   -0.66725927752773
C          -2.54284414385629   -9.71499085283575    1.57692760951550
N          -2.58067085287943   -9.95043155353544    2.69819159199479
C          -2.69595936567168   -8.85030608638901   -3.05812843939914
C          -3.33078741909089   -8.66104733520561   -4.28004134857233
S          -5.08085784658948   -8.81570561354545   -4.14627972044283
C          -2.75002071023696   -8.38410448389492   -5.54533483835305
C          -1.35984883306328   -8.44428011866354   -5.81498107725034
C          -0.84085571063179   -8.14869612123029   -7.12994321141585
N           0.47618683553192   -8.20269773422132   -7.35232195259999
C           1.29538379729828   -8.55149435042739   -6.38980101196796
C           0.77616305170043   -8.89154777010939   -5.09955227012641
N          -0.50885703032570   -8.82125477687127   -4.85066349995818
C           1.66208967593238   -9.33398089035578   -4.08456097714242
N           2.41872483729104   -9.70203415663179   -3.30778758479265
C           2.68582746180224   -8.59878581041718   -6.65077995943277
N           3.81498287726862   -8.64871642725189   -6.83883508948981
C          -1.65916557435371   -7.80206756812550   -8.23131961600100
C          -3.04635251727211   -7.75340652739593   -7.96222792010969
C          -3.56625707187726   -8.04701192637141   -6.65004160499751
N          -4.89540342382236   -7.95637136836816   -6.61547564421300
S          -5.43853713921731   -7.54431999317373   -8.07214373962819
N          -4.02332070290292   -7.46172567083096   -8.82028074437357
C          -1.10194416228573   -7.55149235937069   -9.50818646329839
C          -1.78997121673445   -7.19172596052574  -10.66273261097013
C          -0.94213881806745   -7.05423068191264  -11.75090589187646
C           0.40853841497693   -7.31257707015504  -11.42902866530209
S           0.62816652374834   -7.71064399346542   -9.78015489723104
C           1.18138993365929   -7.16542212721093  -12.60301169063476
C           0.32649269684624   -6.81525267935276  -13.66885017457292
C          -1.03489876275406   -6.72813982137617  -13.16551746118345
C          -2.16395316606520   -6.41293999515608  -13.86235543181625
C          -2.15215630499115   -6.10784836982380  -15.24023025774481
N          -2.17026778667573   -5.85556786233199  -16.35846471806819
C          -3.43516849459866   -6.36921702810970  -13.25126138968677
N          -4.47472345659716   -6.33226039729186  -12.76792671586129
C           1.00134224785770   -6.67019297739663  -14.87716504635105
C           2.36024591534114   -6.91233176122075  -14.74375402953410
S           2.80865443752937   -7.31113219918533  -13.09809447802795
C           3.33155155328567   -6.88359325791892  -15.79389336445717
C           4.67871168456155   -7.17674146574903  -15.57697749248580
O           4.97780510909681   -7.43686620680927  -14.28437216336864
C           6.16022106972725   -8.07362896022121  -13.84828730233776
C           5.64390331540362   -7.15519888179746  -16.65004619838070
O           6.92593427257057   -7.42649365264568  -16.29060881141564
C           7.92384381255729   -7.42573339826558  -17.28565821772111
C           5.27523898278552   -6.86585002906234  -17.93762055958777
C           3.92552220143540   -6.57212926593930  -18.18657109593854
C           2.95117542603052   -6.57051799502567  -17.12673229220033
N           1.79128327138660   -6.25767463900504  -17.66686156656655
O           2.02074710064566   -6.07603804886760  -18.96708066143449
N           3.29716396259535   -6.25952227315087  -19.30238832234633
H         -10.82407689094896  -11.44759035355076    4.23316408219513
H         -12.82812424010531  -10.66859912837268    3.39168468091926
H         -12.53815850441025  -12.39019653033912    3.00827191126557
H         -13.61496154311485  -11.41391641472083    1.97762044069109
H         -11.49862837990984   -9.39611736929634   -0.14277377065078
H         -11.46601269976778  -11.09729075110549   -0.67770306151429
H         -10.71504268765365   -9.83200883661413   -1.68286490889246
H          -5.26761356140636  -10.18962711423259    1.87095397502555
H          -1.62963694104411   -8.78562374919913   -2.95012956977584
H          -2.85526173638263   -7.05204753659076  -10.66877812801225
H           0.55722822451367   -6.40796891387628  -15.81997891999254
H           6.35606620120025   -8.98866380949250  -14.40934708845244
H           5.97053598382683   -8.31898815490528  -12.80327670699778
H           7.02266925213365   -7.40932199326605  -13.91693167073658
H           7.72434724085281   -8.18018467477133  -18.05198251806013
H           8.84861117275584   -7.67181766560134  -16.76662067444885
H           8.01959782230899   -6.44245949471809  -17.75474469612960
H           5.97213632797563   -6.84303077090286  -18.75554180752095
