107
 SCF done       -209.086429387724          0.000590004115
C          -4.64196295424716    1.57080307134854   -5.23212913245658
C          -3.29371959989560    1.30219950000387   -5.23990451415860
C          -2.60851245834591    0.72565632744887   -6.32741514638100
N          -1.99650962765240    0.25339242337144   -7.17702005903887
C          -2.40722180543352    1.58076673099397   -4.18103340754936
N          -1.61911112872063    1.78829047652766   -3.37042067508676
C          -5.55414128573555    1.35250915442186   -6.35099568509526
C          -6.83646824972585    1.82873241640695   -5.98604902355825
C          -7.91745806544995    1.76568129262881   -6.82969740672964
C          -7.72303018532003    1.21141604311632   -8.10005459784038
C          -6.43898952923782    0.73730198036636   -8.45537371036802
C          -5.34577463009680    0.79694741367240   -7.59886699738392
S          -6.42116932228649    0.08722732415013  -10.06729902457383
C          -8.11569025445811    0.45965841839410  -10.23962537685984
C          -8.66859167250402    1.03927305038463   -9.14804480343030
Br         -8.99504492637185    0.04791686077871  -11.84474769197591
C          -6.78794963886805    2.35988327843361   -4.60665385375136
O          -7.73640312323588    2.77692593675355   -3.97096869279891
C          -5.39203866242510    2.18427432631591   -4.16246701738775
C          -4.93744650479249    2.41188008771130   -2.88391713693118
C          -5.59883677092865    3.10259207236819   -1.85965737253617
C          -6.43980664837810    4.18919461595417   -2.04044978040583
C          -7.16820980864517    4.60522975115253   -0.86296685731056
O          -8.06510057785731    5.61013819321443   -0.94218955499982
C          -8.47499999548867    5.89477931611465   -2.26787127882053
C          -7.24929031623791    6.07150737132583   -3.15319853504845
O          -6.49523607976442    4.87338320827719   -3.18529321621424
C          -6.83255898229789    3.95605693988164    0.30701978260770
Si         -5.38008902352151    2.80835258956233   -0.01051863257272
C          -5.70284303726178    1.04266574480169    0.51436838174546
C          -3.68021842244028    3.44858337285028    0.45018474922650
C          -7.53377611500433    4.09632597266430    1.53757725574725
C          -8.91783404180213    4.36768525011461    1.64756617225160
C          -9.54400664845588    4.60169621970563    2.92752644106924
N         -10.85055294021378    4.86897111119749    2.98701900494375
C         -11.56489806663748    4.89138170029386    1.88469262604853
C         -10.95185124291342    4.58855553499095    0.62591283064597
N          -9.67270896846531    4.32658528791161    0.54396281781102
C         -11.72315379936012    4.56625946078151   -0.56292157372703
N         -12.35244079376257    4.58382082444163   -1.52002717508869
C         -12.95205194815814    5.16159604379121    1.92932527594811
N         -14.07930467499405    5.36819453082387    1.89450825811802
C          -8.83491734489499    4.55612410398383    4.15771720525757
C          -7.50153563835045    4.08703496712854    4.05333911726430
C          -6.87939441581098    3.86087025992526    2.76732526637895
N          -5.63611650278577    3.40048725684917    2.88991611241747
S          -5.29409427859533    3.23437507833875    4.45419137466610
N          -6.68550184262315    3.75198819198854    5.04980577332196
C          -9.54386063715992    4.90042360667836    5.33206486013595
C          -8.98299054563044    5.18412737524325    6.56237973716515
C          -9.91842717025937    5.34692071142372    7.64531037797116
O          -9.51905712111831    5.74348459712696    8.87035512602059
C          -8.18173820909535    6.20531133584528    8.95298054096147
C          -7.26779551150759    5.31636144863875    8.11982732034332
O          -7.66430047732626    5.35322737339911    6.76365597073892
C         -11.24742946466150    5.13012088720425    7.32939700432034
Si        -11.41855468941189    4.97282676684190    5.44305038437660
C         -12.22551231306676    6.58603872657463    4.91313602842353
C         -12.35166336770747    3.38133503332861    5.12521643710618
C         -12.32360160741956    5.15224137347626    8.22361171369645
C         -12.41224864287792    4.97767112061670    9.58557195095842
C         -11.49194615318539    4.53348413055348   10.58925001002737
C         -10.38703904291679    3.73106172750180   10.40628173783388
C          -9.45543415444229    3.41937844786962   11.41222629083771
N          -8.62424085349698    3.17591029252803   12.16782160713377
C         -10.08238794832163    3.09323730009673    9.19357149457909
N          -9.79340087424493    2.55161935165178    8.22170935126623
C         -12.02473268878832    4.93627617330371   11.89027172634775
C         -13.33532164551237    5.44203699633411   11.70572716858727
C         -13.65415205798035    5.43037264976424   10.26244045999439
O         -14.69352139423595    5.75721788068111    9.73326886770357
C         -14.11852253315878    5.86456665230618   12.75059429685694
C         -13.57815621668240    5.79657187122028   14.04020520788107
C         -12.26514162249394    5.30113610957297   14.21297019628964
C         -11.47614873207532    4.86239108463196   13.15499121958397
S         -11.79303100241009    5.31257864677686   15.88536699447545
C         -13.34732720528842    5.97068871064312   16.32393446544505
C         -14.17739113272051    6.17299767633035   15.27384248423622
Br        -13.72453582339792    6.33040147546242   18.12611277678104
H          -8.88389097363336    2.13357624368798   -6.52222478153411
H          -4.38881475251061    0.41641113788662   -7.91450199076419
H          -9.70030449893795    1.33301979405642   -9.08209537328924
H          -4.01158997434292    1.93419810607292   -2.58904934204002
H          -9.08653653836972    5.06741823753199   -2.64898762071159
H          -9.07012989377284    6.80703518147675   -2.21901972198600
H          -6.62048596882759    6.88453449848868   -2.76455378648706
H          -7.52852376253436    6.28583495559992   -4.18592063149248
H          -6.66006040978610    0.67443972770518    0.14808842821387
H          -5.71102739051187    0.94197371097318    1.59698404657554
H          -4.93632241058138    0.36676896872550    0.14046000479858
H          -3.45565798574597    3.28220272864575    1.49965066467752
H          -3.57817243292901    4.51600560432866    0.26271111865062
H          -2.90670164346443    2.95027960035882   -0.13195685543242
H          -8.13224353453503    7.23939182533585    8.58714911280010
H          -7.91249234257039    6.17732393123764   10.01034517375787
H          -7.31706996354856    4.28304258699923    8.48675368915058
H          -6.23604297726663    5.66798671433631    8.14887882473367
H         -11.52046960333558    7.27611702315739    4.45449901062469
H         -12.67537286803292    7.10434899239281    5.75713567087139
H         -13.01903825410469    6.41818666722212    4.19029518321500
H         -11.80172720832956    2.51882797136252    5.49893671478192
H         -12.56733783345766    3.20170712809887    4.07601291617036
H         -13.30921781257887    3.39078304135925    5.64235729495623
H         -13.28428608903756    5.37543491864423    7.76583510003027
H         -15.11729111714771    6.23535878600040   12.58163497286883
H         -10.48091138784877    4.49170025627075   13.33711428445340
H         -15.17157698281928    6.57140304458073   15.36255356877189
