149
 SCF done       -276.926272535250          0.000552784663
C          -3.31801241253562   -0.03680465642152   -3.73492432207026
C          -2.04853463872964    0.07898886832464   -3.23189157546775
C          -0.98164886396969   -0.77603176315827   -3.58244762795002
N          -0.07284393721984   -1.43628778059044   -3.81900570142486
C          -1.59003060255091    1.07308808007891   -2.34022298980046
N          -1.11518407292301    1.84972223846474   -1.64005196971269
C          -3.73069595171814   -1.00855093450393   -4.74009263545836
C          -5.05362362146297   -0.70681211607095   -5.14012361373391
C          -5.72809089096303   -1.43576949249451   -6.08932662419347
C          -5.06602859761951   -2.52341991836625   -6.66718285926571
C          -3.74509187393024   -2.82331929026371   -6.25612342842472
C          -3.06209496165375   -2.08161825092233   -5.30046326702456
S          -3.11574322351049   -4.21116144428067   -7.09095774877422
C          -4.61372566836612   -4.36615427640498   -7.96998156681230
C          -5.53936596660643   -3.42904907351129   -7.65562786195667
Br         -4.81503839413974   -5.75121561744190   -9.21809088060401
C          -5.54604697826323    0.46293531246067   -4.38681071165005
O          -6.62318364714117    0.99684307612398   -4.55251454833251
C          -4.46529073794537    0.80974055083730   -3.43351009865357
C          -4.49970635104822    1.66764758644254   -2.36906430226445
C          -5.50116778969238    2.54662893230345   -1.90144487202840
C          -6.72593737995424    2.91483469000590   -2.41094778247538
C          -7.41609805429988    3.84443259255397   -1.61341436475462
C          -6.69844044002282    4.17568036113516   -0.42847604677707
S          -5.16077381104575    3.36693963061261   -0.37702638431390
C          -7.18485645685731    5.05313086153554    0.52474027946430
C          -6.43872806180698    5.44390511017402    1.72426951787856
C          -5.88231441688087    4.49027752033616    2.57090987578525
C          -5.24271548877934    4.87605951459422    3.73397783002981
C          -5.12912039775526    6.21660909905517    4.07834075514540
C          -5.65432913247155    7.16940279832403    3.21016109907260
C          -6.30293225751183    6.79315791962533    2.05385357062200
C          -4.47501847569986    6.64904998301867    5.35080468462306
C          -8.47166041196736    5.57872678257847    0.28607823175896
C          -9.18924946162693    5.25770752757158   -0.89740332003831
C          -8.68448205606114    4.41492083918787   -1.86971461678215
C          -9.41321612215524    4.11737533462412   -3.10729758633564
C         -10.74461208318903    3.71388705219887   -3.06648723889364
C         -11.42401979240568    3.42164503434774   -4.23317650045940
C         -10.80111201128080    3.53091910978617   -5.46963962016285
C          -9.47517593517155    3.94889058631688   -5.50778880244029
C          -8.78731331414170    4.23609950458704   -4.34686741555162
C         -11.53631430693165    3.22630589032159   -6.73803818323469
S         -10.73004026980570    6.08502558111849   -0.94287945120802
C         -10.42879068689381    6.79790155990158    0.63001957799312
C          -9.20628021039950    6.42294584551890    1.13611257501270
C         -11.40660111063563    7.64209128711381    1.23443818573353
C         -11.26359372286901    8.24685197792859    2.50895802555097
C         -12.31434530509081    9.04938082788918    3.10220767434806
N         -12.10749263236948    9.62424023660993    4.29633642387944
C         -10.97891901398244    9.43459962445123    4.93389318983510
C          -9.95078779359620    8.62159840206989    4.36104415586978
N         -10.11819341733959    8.07313318898880    3.18342819074106
C          -8.72435275951676    8.41481122379759    5.03918673523760
N          -7.73980479106997    8.26298011288439    5.60550788437164
C         -10.78335833013545   10.06131771850260    6.18854036548247
N         -10.59351548108835   10.55050027246343    7.20731307653803
C         -13.54789341792999    9.27975676645312    2.44610292358475
C         -13.65421042839931    8.73515753254443    1.15123309805139
C         -12.61553020779065    7.92603618885412    0.56716344872852
N         -12.95199753549578    7.49765241119757   -0.64989969674368
S         -14.40883206043444    8.05639832782542   -1.02431188507566
N         -14.69859972156847    8.86315836533215    0.33177988013371
C         -14.62790857568926   10.01335542560953    3.02162508947062
C         -14.80250570154624   10.36889081454005    4.33755506247594
C         -15.97306900897519   11.11357967511216    4.57278933936826
C         -16.73307347806824   11.30036361233777    3.38747024716918
S         -15.95440744162759   10.55309035095834    2.01466206089998
C         -17.92845486404806   11.99824598037446    3.36062986569066
C         -18.66277195150485   12.23405467805723    2.11212257642722
C         -18.96164969946834   11.18452945207465    1.24921311031914
C         -19.63760176936954   11.42062260754764    0.06724757837382
C         -20.02465460960206   12.70498775001246   -0.29132081547634
C         -19.71892786185019   13.75301421463086    0.57115529688851
C         -19.05145868258304   13.52466346020122    1.75709370464708
C         -20.74732484555906   12.97238765776290   -1.57512510262587
C         -18.39342939101013   12.49749190456602    4.59434444936053
C         -17.63054681308135   12.30331239176507    5.77626136340007
C         -16.42316708279588   11.63131465411711    5.80455887392201
C         -15.65920118561116   11.44220021926258    7.04176990750454
C         -16.27844908834835   10.92564256928590    8.17774976204676
C         -15.55658799304014   10.72419396588634    9.33780303892267
C         -14.20290904310570   11.03413259294389    9.39937284733160
C         -13.59017602733304   11.56098062842230    8.26724991512766
C         -14.30390764995044   11.76110138086447    7.10308662607970
C         -13.41821599966729   10.82487055866296   10.65599664879044
S         -18.40073289421875   13.03303538139699    7.15739817649700
C         -19.77972161841107   13.50363148323710    6.17879036817321
C         -19.59871047103033   13.18226890722077    4.85662376395907
C         -20.89444002745316   14.19380655124924    6.72386029180118
C         -21.30562871116337   14.24599692485545    8.01718305274056
C         -20.93575483229902   13.46167671794943    9.17892830043301
C         -20.60247110891151   12.13337964180474    9.17886519507135
C         -20.29747673922789   11.39837613741785   10.34133241597773
N         -20.01573539009560   10.76413497857541   11.25579180215096
C         -20.62165311404690   11.33229090186803    8.01654805992419
N         -20.69601534408602   10.63025653443542    7.11139859370261
C         -21.26783077898605   14.25360425344862   10.35611727321114
C         -22.05161556820391   15.36361432332852    9.94852647747609
C         -22.18514440018820   15.35573627587240    8.47692557844976
O         -22.82188259516944   16.11414891855874    7.78351437039503
C         -22.56294945602800   16.27020109950496   10.84540463974544
C         -22.27816580786730   16.07913405471514   12.20168367038034
C         -21.48301304312869   14.97551930609650   12.59484872662243
C         -20.97332790678994   14.05205262363379   11.69059620251393
S         -21.24764070207713   14.93808771325048   14.31543315776361
C         -22.21154784330826   16.38174102035199   14.48294483546259
C         -22.68413622143434   16.86984280470785   13.31169909607005
Br        -22.50023673579549   17.10811726437979   16.18743817708591
H          -6.73574677520297   -1.17596054973069   -6.37364434916515
H          -2.05871988548174   -2.35419819956814   -5.01991985835244
H          -6.51621002080144   -3.37742762205848   -8.10066645747381
H          -3.61772865083761    1.67170606489954   -1.73856589653991
H          -7.11802577976827    2.51001701511920   -3.32549627875105
H          -5.98370030164707    3.44103185922873    2.33509905673603
H          -4.83504360541583    4.12012868141492    4.38956622835981
H          -5.56050511834261    8.21679924161683    3.45643580331890
H          -6.69265500282897    7.54540647516734    1.38306858358342
H          -4.12898428068881    5.79432773309484    5.92587839466625
H          -5.18477721443738    7.21650438468018    5.95079093055721
H          -3.62508450303205    7.29677750103560    5.14007639685172
H         -11.23990445847732    3.60161335704968   -2.11367308465774
H         -12.45356731529467    3.09745730338942   -4.18103811971734
H          -8.97598827139132    4.04662678022704   -6.46104533427176
H          -7.76402110160969    4.57798021292842   -4.39804871995115
H         -11.81294173398515    4.15319726423075   -7.24134977266960
H         -12.44437374613451    2.66325054749647   -6.53753196706438
H         -10.90809593487681    2.65382501089173   -7.41753945072022
H          -8.85875530924331    6.73704057079886    2.10136677139122
H         -14.11576518005616   10.08618225751038    5.11222747247100
H         -18.68288969976138   10.17680544365080    1.51743059780893
H         -19.86831718187710   10.59180973747706   -0.58634629255718
H         -20.00650986593615   14.76025433114373    0.30490181108335
H         -18.80116225268163   14.35341375670911    2.40392538798798
H         -20.95872769671731   12.04708004397841   -2.10454987323831
H         -20.14553272568052   13.61178673785173   -2.22036291479395
H         -21.68726923893700   13.48779369090694   -1.38267045730199
H         -17.32134798305582   10.64514330755475    8.13872042262127
H         -16.05202370684378   10.31097759649339   10.20460393711258
H         -12.53837163185601   11.80390239841285    8.29535877311807
H         -13.81567749882137   12.18746608515390    6.23878533355620
H         -13.86874782466300   10.05110350330253   11.27286926419412
H         -13.39347713349747   11.74808630394354   11.23593425640744
H         -12.39254317584021   10.54734424618179   10.42460274666638
H         -20.34184622539788   13.38357192058540    4.10560824753021
H         -21.44614667432853   14.82146857234877    6.03061506237414
H         -23.16503010510443   17.10107980416309   10.51267157847193
H         -20.36783060175516   13.22801473193068   12.03063945398715
H         -23.29377656131515   17.75121631436652   13.23145549153297
