97
 SCF done       -204.676287370806          0.000580732507
C          -4.60023722047675   -0.94610982745115   -3.56478771583210
C          -4.50176873894859   -0.78767969284085   -4.92258902588456
C          -3.82504840879600   -1.68561727055079   -5.77609597929329
N          -3.29400771309870   -2.37453726377811   -6.52483549251639
C          -5.03411313667357    0.28103824267973   -5.67458555378604
N          -5.42738886743391    1.11203651834232   -6.36326919386913
C          -4.01475404227211   -2.04285549111646   -2.80210611634234
C          -4.26431738349191   -1.82607629377684   -1.42456309458047
C          -3.83409597808970   -2.68784100904724   -0.44494803133501
C          -3.12642808982644   -3.82602937226000   -0.84406270156930
C          -2.88591134216408   -4.03972597652078   -2.22312167781016
C          -3.31759543199605   -3.16493007793320   -3.21222300997644
S          -2.00131000213981   -5.50947402895126   -2.49672147798686
C          -1.96607813749754   -5.81287172094322   -0.77990839081442
C          -2.58429540362638   -4.86328800952691   -0.03759046523676
Br         -1.11809238631739   -7.35366243466979   -0.13048371766400
C          -5.03544791080793   -0.58208776958534   -1.25912973763541
O          -5.39753573677819   -0.09652207021696   -0.20668834190630
C          -5.27103258170550   -0.06459693707953   -2.62102937481255
C          -6.02770908169103    1.02270803899574   -2.95146843456379
C          -6.75430897377945    1.92266685226896   -2.14022892376744
C          -7.52250295892595    2.93247649534088   -2.69618292930169
C          -8.20626213383943    3.71463640176433   -1.75428931756518
C          -7.92759283694492    3.28313540678092   -0.42452880628319
S          -6.84003160028196    1.92458138712625   -0.38980861410438
C          -8.49633939066455    3.89219057048208    0.67157483665785
C          -9.37893808636494    4.95160377163051    0.44970899871804
C          -9.66227741173460    5.37753118109660   -0.88179125288854
C          -9.08682855289834    4.78345193415409   -1.97637731009356
S         -10.82075720418048    6.68252261984158   -0.89412810645852
C         -10.91424886875836    6.65898814595924    0.85908600346142
C         -10.09637047180703    5.69724528103656    1.40474809238844
C         -11.80650338798350    7.55027561404795    1.52914002342207
C         -11.90067504298268    7.67978363168491    2.93755750437885
C         -12.89886226307512    8.51673344447450    3.57112778345954
N         -12.91731748827178    8.61399613178202    4.90893195087008
C         -12.05551743004366    7.94643802515887    5.63261574308306
C         -11.08032252620611    7.10632996528479    5.00745679764901
N         -11.02925149383791    7.00686113066843    3.70364688295976
C         -10.14821121448211    6.37955209676410    5.78966497565805
N          -9.41440985515876    5.79416752944456    6.44613961359249
C         -12.09454002551209    8.07996140747198    7.04321041153992
N         -12.11185348022116    8.16412411761956    8.18537964930086
C         -13.85554665195251    9.24905888519234    2.82469888376194
C         -13.69653314415203    9.18373027917999    1.42633436276289
C         -12.69663966399262    8.36003510274946    0.79579723847155
N         -12.75313559904855    8.45253998223563   -0.53398490812035
S         -13.92534536434277    9.46319415215214   -0.94761958990462
N         -14.43365530964517    9.83573363612972    0.52528279969328
C         -14.93319773377989    9.98838281988414    3.40146715716866
C         -15.31354210624049   10.05733407031253    4.72093544630817
C         -16.45915864727079   10.84635677809279    4.94027738970496
C         -16.96512180062790   11.40095352730363    3.73141198890200
S         -15.99978233580393   10.91934743063329    2.36307840947865
C         -18.09027387371482   12.19240752900051    3.70388549693626
C         -18.74860366236804   12.43883406069123    4.91102851643851
C         -18.24307650918532   11.87479981354056    6.11611603894603
C         -17.11251743224355   11.09576660591662    6.15120275119573
S         -19.24482985642225   12.28844740847678    7.47770742583149
C         -20.33820129735196   13.19334371001877    6.43948457602456
C         -19.91549353579304   13.20227648151563    5.13689675184927
C         -21.47192846130627   13.87681298791731    6.96407638957952
C         -22.18845900914989   13.58128660523430    8.07582875063659
C         -22.22266527261915   12.39857692758442    8.91585602422516
C         -22.04344003136693   11.10975336897332    8.49121168454692
C         -22.18089160181789    9.98310894072959    9.32738612256136
N         -22.26999672951103    9.04059566471313    9.97582934639167
C         -21.80856832610700   10.76815325881613    7.14199927491601
N         -21.68110291517916   10.45319101295994    6.04581270562084
C         -22.76817264872692   12.80271633133593   10.20472525527954
C         -23.29316251631053   14.11545808636927   10.08425413166548
C         -23.03928694512525   14.62263862238842    8.72097113845874
O         -23.39131974658399   15.67202450550052    8.23702867901408
C         -23.92024199619222   14.75397484112229   11.12718694130580
C         -24.02328297792234   14.07144022959521   12.34379694930483
C         -23.48301967102601   12.76687853926384   12.45598572305695
C         -22.85671044561026   12.11617156038001   11.40035958037749
S         -23.71255251645543   12.11467966814407   14.04894113098689
C         -24.52515372568205   13.57889354352386   14.53605462728210
C         -24.61815557667017   14.51106878923980   13.55803825751616
Br        -25.17032778005017   13.73879172191681   16.28904818894310
H          -4.04002848896677   -2.49072989427261    0.59539515378720
H          -3.10951191548544   -3.37543553401995   -4.24770418596441
H          -2.65624074824328   -4.89204431549471    1.03429228501720
H          -6.12542334869704    1.24581419138891   -4.00732314097749
H          -7.58926991609325    3.08788619129260   -3.75911740724627
H          -8.27835743283918    3.56083422466205    1.67426281066794
H          -9.30705405287444    5.11244704871769   -2.97930463252115
H         -10.02224268076288    5.52640953435134    2.46208429326078
H         -14.78865414732377    9.54880145886544    5.50726818836711
H         -18.46630829650237   12.60390457454606    2.78105761433782
H         -16.74095196377476   10.67574233435170    7.07207624533200
H         -20.45484481731591   13.70522868851154    4.35398347465882
H         -21.75513773880309   14.78974948951634    6.44884608932557
H         -24.32005420872679   15.74881109490558   11.00895973379777
H         -22.45359147404192   11.12509321519657   11.52893209801852
H         -25.08635506038682   15.46989952296459   13.68577326988482
