99
 SCF done       -207.282832481933          0.000401340041
C          -3.07784470478422    0.25064169524636    8.05616585130593
C          -1.87140837913163    0.86445155989465    7.83916861029158
C          -0.69015778243412    0.54440637759746    8.54060654204400
N           0.30009400329738    0.32958779546213    9.08017203433010
C          -1.61605402430328    1.84462985080841    6.85613879574403
N          -1.31547786100249    2.62036532210637    6.06452586875612
C          -3.30350139703539   -0.85787825994117    8.97542698380846
C          -4.60747541382252   -1.36121660877041    8.75518371849738
C          -5.12335207236402   -2.41974953206402    9.46247994006878
C          -4.31493821760034   -3.00403378402874   10.44287403166799
C          -3.01486143883071   -2.48928603940170   10.66161733515564
C          -2.49110792134892   -1.42323460903563    9.94018336375103
S          -2.19090925293896   -3.35107711821985   11.92537175530121
C          -3.58414193373178   -4.37764071738447   12.13893692912413
C          -4.61443145423114   -4.09188300102042   11.30794115941354
Br         -3.54850142965724   -5.72810622333168   13.43990980523293
C          -5.27026152936827   -0.57435747066001    7.69646774146391
O          -6.37529035240048   -0.80172047131396    7.24412728040119
C          -4.32394359735033    0.50949701253714    7.35350096518571
C          -4.56379159799796    1.66574713686190    6.65476279630481
C          -5.68146478124769    2.07838642967550    5.91023273367123
C          -6.79666889848829    1.38102838095990    5.45945018859524
C          -7.65666526715792    2.19852003638107    4.74555409188184
C          -7.21263850693693    3.54899127427984    4.63307231474132
S          -5.69902851706790    3.77921513877924    5.40881307296110
C          -8.18702868818500    4.23381193580119    3.91904002761694
C          -9.19711652162377    3.28354527420146    3.60622408589276
N          -8.86495838001474    2.05832165856824    4.11763663733787
C          -9.62587460869572    0.84686778772394    3.98866947518869
C         -10.25812953577269    3.82056507464543    2.89273864226446
C         -10.08157952011946    5.17993638802215    2.65994937915030
S          -8.57987823945451    5.80873697535980    3.32298842772970
C         -10.98253899012900    6.04034345232446    1.98216091319930
C         -10.71145870175755    7.42161449199528    1.84903216734549
C         -11.62091434688483    8.32991938638031    1.20255668304570
N         -11.31246799824682    9.62851665386881    1.12735656047884
C         -10.18744396658860   10.06862443440155    1.63481485457333
C          -9.27733250957718    9.16244592832078    2.27062940679140
N          -9.56551875546923    7.88711307791369    2.35667191460795
C          -8.05843121818364    9.63785528707005    2.81480198332792
N          -7.08428064598984   10.05739184288024    3.24658671289722
C          -9.88097371935964   11.44957537928192    1.55230539638607
N          -9.60117632827454   12.55908316585338    1.50587572366576
C         -12.84737953180805    7.90720463700699    0.64002545106616
C         -13.11451924985172    6.52072574237332    0.75014923462253
C         -12.20392768528504    5.60815394887571    1.41001435282316
N         -12.66990674362903    4.35913327256693    1.39692447064254
S         -14.08615004362954    4.32422587597349    0.64261465195373
N         -14.19431879833323    5.88686324772286    0.29223109536563
C         -13.72879989882802    8.83464424554010    0.02856573250422
C         -14.95426213407214    8.54191274441347   -0.55972729193723
C         -15.57314171973355    9.68377121459426   -1.04595427431629
C         -14.81764587497025   10.86863516910789   -0.83062587925086
S         -13.32549659465117   10.54428539697265   -0.02133141667926
C         -15.56568346268672   11.91279182171855   -1.35851279969172
C         -16.75918992754666   11.33962447349700   -1.88183722413594
N         -16.75067462378148    9.98676385242526   -1.67628031359838
C         -17.74922593576378    9.06409968952668   -2.13986620226135
C         -17.61236466928981   12.26247104465901   -2.46440877830110
C         -17.09204017918922   13.55218460042141   -2.40691000436047
S         -15.53425464487288   13.61410416134152   -1.58076363652139
C         -17.65394532903945   14.76694277015444   -2.83727263267835
C         -18.70991959636975   15.00813671311162   -3.67197627887307
C         -19.43554003009092   14.20035604010982   -4.62157112923974
C         -18.95251390029440   13.13173613401187   -5.33676308810226
C         -19.69860742959522   12.42738277917472   -6.30209096989518
N         -20.26574205292510   11.79510536355533   -7.07496125452054
C         -17.63255364964952   12.65009414217823   -5.24674462922848
N         -16.56683779875591   12.22270218097573   -5.23388508364098
C         -20.70164554437924   14.87745473970399   -4.89354404601303
C         -20.65956113607771   16.16919912970713   -4.31217957474769
C         -19.37988722631275   16.33454033598909   -3.59329031091734
O         -18.97386024275055   17.31859689782865   -3.01930155185829
C         -21.69420726390089   17.06464379073824   -4.42823838623318
C         -22.82893375443295   16.66180198175053   -5.14120429359945
C         -22.86645035744914   15.36486339371059   -5.70600305438995
C         -21.81538437448979   14.46193522385881   -5.59690696106651
S         -24.36600088595673   15.07044345148405   -6.53225799160664
C         -24.91386837141360   16.67319793596082   -6.11742569675376
C         -24.02172919971923   17.39261259801480   -5.39623553954346
Br        -26.61220227096937   17.24221234900820   -6.67346090628853
H          -6.12037557710299   -2.78320698804951    9.26867710767455
H          -1.49693449665968   -1.06435392799500   10.14725167641825
H          -5.54805387288051   -4.62416129237355   11.30467580079959
H          -3.78717356986381    2.42050346700979    6.70733263586425
H          -6.94333478942089    0.33802762420524    5.66648285889678
H         -10.68775993308418    1.06677767024159    4.10052809187397
H          -9.32054364595692    0.14905507454839    4.76606991110290
H          -9.46305530860104    0.38374593491018    3.01126757005055
H         -11.12498533774026    3.29048486623771    2.54664630625282
H         -15.33403117781960    7.53889961520484   -0.60695798129727
H         -17.81214863177114    9.08541397456846   -3.23081876824917
H         -18.72660100249122    9.32271752414795   -1.72639453074943
H         -17.48188797330158    8.06033782325927   -1.81865611555021
H         -18.58171211099482   12.03466036433581   -2.86845192913673
H         -17.23694114594882   15.66097587741201   -2.38217696588517
H         -21.63176754077573   18.04524436503963   -3.98336448071906
H         -21.89145948686271   13.48288451064974   -6.04035485742577
H         -24.19567726930558   18.39720803685610   -5.05647302271741
