113
 SCF done       -233.592606532834          0.000979401627
C          -1.87554842440493    3.96689392847832   -5.05605375049126
C          -2.04224275620248    2.86972009336981   -5.85939672692946
C          -1.04419064625314    2.37016395649430   -6.72292075740441
N          -0.27369853085838    1.92093829167092   -7.44551499943455
C          -3.19087841141299    2.05026895158977   -5.90785557244024
N          -4.06868442762492    1.31480235515822   -5.99095766155197
C          -0.64148844955927    4.72963206290795   -4.92165260408125
C          -0.79129139952320    5.63645950696244   -3.84553891709411
C           0.20625887379565    6.49651605694302   -3.45449622832569
C           1.40728686886694    6.46885159663193   -4.17018261386822
C           1.54497080330934    5.56626140507575   -5.25214883885151
C           0.53893485208334    4.68994816765949   -5.64029527909968
S           3.10319565996294    5.70746108582317   -6.00704088222047
C           3.54328297176157    6.95813861002458   -4.87426080665147
C           2.57488145736151    7.25618837228982   -3.97569621520534
Br          5.23736202788134    7.75413650018180   -4.98708317393697
C          -2.14119655370745    5.50155666664196   -3.26722703276605
O          -2.54643740977522    6.10074085649049   -2.29076602526395
C          -2.84899294051208    4.52285306465925   -4.12537740772195
C          -4.18972260724479    4.26166077578196   -4.20624215403037
C          -5.27461296285512    4.70990211301774   -3.42112020996314
C          -5.30411014526882    5.36447692308434   -2.20896570686308
C          -6.59904163964778    5.65716152601347   -1.74351650604111
C          -7.58898651074450    5.18977201387594   -2.65475983126415
S          -6.89366728693142    4.38896813024666   -4.02826209671718
C          -8.96109870003460    5.35016828262847   -2.51269936589254
O          -9.68764909706179    4.80887601948417   -3.51794917461175
C         -11.09414387903031    4.83741261483771   -3.51923936325885
C          -9.39900513624852    6.05210058797893   -1.36548628866277
C          -8.41398433999549    6.50409725034035   -0.44748889576819
C          -7.04386914104979    6.33158275881832   -0.57936937969756
O          -6.31963360171507    6.85701530734719    0.42691275761449
C          -4.92032209201824    6.71059678925137    0.51026335558523
S          -9.09871784655873    7.35535283476322    0.91511625921052
C         -10.69354610821118    7.13313805726328    0.25441707631845
C         -10.68660008585611    6.42931739678722   -0.93047813329576
C         -11.84051516933117    7.67522677765136    0.90352656796096
C         -11.69898025749797    8.39629867170911    2.10761834253988
C         -12.81418548799854    9.01481588924526    2.77119865258593
N         -12.61682162037193    9.68954440821473    3.91039063942375
C         -11.40664892566872    9.78922115198283    4.40825544494081
C         -10.29471233187414    9.18188021367474    3.74245120957341
N         -10.47128694397457    8.50983198589931    2.62913562376514
C          -8.98860598819215    9.29939405827865    4.27808815379428
N          -7.94638467132734    9.40996599048154    4.74052084391268
C         -11.21003921421081   10.50537959051650    5.61450182901755
N         -11.01025502937135   11.07791501863836    6.58626858693911
C         -14.12693899376701    8.95306941956784    2.25817912652799
C         -14.28279898396242    8.20436355748232    1.06899412476322
C         -13.15925065322718    7.57356419626007    0.40464736459941
N         -13.54187281386868    6.92851008117392   -0.69821185054755
S         -15.13043545200845    7.08733254205968   -0.88621095076286
N         -15.42383462738223    7.98562423699577    0.41400853428455
C         -15.18626383615366    9.64388939975683    2.91434445225165
C         -16.49749184469013    9.70496231787703    2.49508651176373
C         -17.32376611443900   10.50448469893961    3.31195783735408
C         -16.57599713258855   11.05098118508213    4.38958265758912
S         -14.90025876508092   10.56121781522615    4.36654776023839
C         -17.07269562555286   11.89673419378556    5.36903087694264
O         -16.16755232155249   12.26348940625547    6.30298909472777
C         -16.54886466670970   12.87731992152746    7.50992931862301
C         -18.43286371916080   12.27011531673840    5.25608770145701
C         -19.18558142530118   11.70431709403884    4.19067548992290
C         -18.69618124178391   10.83209454641481    3.22689952386481
O         -19.62094772309508   10.43152943607721    2.32470577726518
C         -19.31664405110998    9.50926764005076    1.30659858513753
S         -20.83300834031296   12.24997350805577    4.18133593582066
C         -20.53813561679920   13.23232499918032    5.59782901458374
C         -19.23238280721973   13.13833413517543    6.02573784346430
C         -21.57568770524330   14.05790215849364    6.09273000800306
C         -21.69016343068520   14.70051832454402    7.28807778924802
C         -20.98914746404580   14.59687223695416    8.54904590945833
C         -20.39348063614978   13.47592882557078    9.06947094732443
C         -19.78730958119366   13.42265982212871   10.34080921951017
N         -19.25119018302609   13.33018628595290   11.35178776937187
C         -20.37621959991240   12.22190231396263    8.42779275395952
N         -20.34928758329604   11.17118036694446    7.96646547265795
C         -21.24974858013393   15.82507047760240    9.29389120275638
C         -22.26316585703925   16.55700426380420    8.62524940441026
C         -22.64151887454631   15.84400372644057    7.38934408377426
O         -23.50470918674122   16.13850062845036    6.59628558286854
C         -22.75306957541683   17.74656944666033    9.10654007763990
C         -22.20961022677931   18.24256368852545   10.29657733914711
C         -21.18914954771902   17.51017740434771   10.94972027869447
C         -20.69935719266052   16.30225999082568   10.46795703910015
S         -20.65349856312418   18.30980751138164   12.39551591215493
C         -21.79435248313533   19.59755480521736   12.11081427951045
C         -22.53751670204721   19.43974058914282   10.98959459773474
Br        -21.89250983589255   21.02933487379291   13.31744766421234
H           0.06277949899146    7.17201602200415   -2.62576266881140
H           0.69112112491416    4.02467447212336   -6.47350953145544
H           2.67734910029266    8.00110602312654   -3.20787158468605
H          -4.50270263257472    3.64110355487049   -5.03813005776675
H          -4.39159112816581    5.61864045964163   -1.70867395212211
H         -11.38713095726682    4.27936199330346   -4.40808341580539
H         -11.47442654635835    5.85983554294595   -3.59519507701540
H         -11.50685851980205    4.34803571404589   -2.63314286094912
H          -4.64771281338525    7.16813736780452    1.46071424771877
H          -4.40826662321961    7.23454676497186   -0.30053301040351
H          -4.62756006345962    5.65753242639151    0.52017045634642
H         -11.61053386566711    6.22757752416821   -1.43529160455592
H         -16.79936233006363    9.17810344391861    1.61169595659483
H         -15.67846532791168   12.79529858829044    8.16050263337840
H         -17.39519215005025   12.36331781615570    7.97398520926276
H         -16.77995077381200   13.93737882627831    7.36388574891822
H         -20.26159239002653    9.33272492056295    0.79364500479529
H         -18.94622861765978    8.56613055186470    1.71643589577004
H         -18.59387824603520    9.92017623427159    0.59637553969713
H         -18.86884394233927   13.74496022496393    6.83307387997200
H         -22.37289079157209   14.27680599295045    5.38840502332907
H         -23.53049419717872   18.27912047642525    8.58177190536752
H         -19.91744600899062   15.78236436768510   10.99648904065278
H         -23.28618897731888   20.13800864236940   10.66285840988756
