83
 SCF done       -167.714075629590          0.000968237442
C          -2.43247702400547    1.43072479764564   -3.37775666616004
C          -2.00599883184807    0.12769281251048   -3.33910429369769
C          -1.05816241620220   -0.42070931352746   -4.22875087840096
N          -0.29380173470863   -0.92788573935291   -4.91916917737734
C          -2.44466874527590   -0.86036677943101   -2.43303405291655
N          -2.74619849854809   -1.72580965036037   -1.74006822346098
C          -1.98163886010693    2.43303898630086   -4.33902870987242
C          -2.68320750513966    3.64018193289145   -4.10043362119135
C          -2.48306756215511    4.77650052724716   -4.84518389173726
C          -1.53905078769611    4.72201970034613   -5.87608719457910
C          -0.83836822648356    3.51419235182077   -6.10506370853688
C          -1.04414578402977    2.36407148573942   -5.35272079525435
S           0.28523849484854    3.66720829507290   -7.42164580120437
C          -0.19551919376025    5.32805501598498   -7.64384524393601
C          -1.14817458713943    5.74887218338139   -6.77803980885738
Br          0.60530906755157    6.35049873060789   -8.99670963126333
C          -3.60122713114302    3.44890494773346   -2.96306577860548
O          -4.35565922598505    4.28547490784659   -2.50050636976299
C          -3.40943993453121    2.06500467813770   -2.51204142154794
C          -4.02974189369808    1.48206928702093   -1.43750785147189
C          -4.97585406963617    2.00469792258570   -0.54185756672562
C          -5.48664538004575    1.25287179408619    0.51804969578033
C          -6.39763032353487    1.92263749287604    1.32179825649379
C          -7.10585951121110    1.27217340929519    2.46096878914800
C          -6.60565091719839    3.22439501559041    0.86858146660608
S          -5.69055190805298    3.59199137104035   -0.55383873082512
C          -7.45666483534605    4.25243374898040    1.40095961047312
C          -7.55784640371577    4.56113289659995    2.77580486265145
C          -8.40719703947108    5.61446008534470    3.26677548006209
N          -8.46155935368029    5.85113345110992    4.59513282511733
C          -7.71487203441602    5.14590641355977    5.39465571136132
C          -6.83624791298355    4.15699443067315    4.90386169883644
N          -6.77206213790928    3.87581095717909    3.63592603384780
C          -9.17769328091190    6.42062815216338    2.39048536623766
C          -9.04096826259006    6.12976407444873    1.01867798287488
C          -8.19520367723719    5.07187164482404    0.53162800745289
N          -8.25092137521340    4.97052829640984   -0.80106346893117
S          -9.23911084244633    6.08474653827265   -1.37360561560660
N          -9.66279197314534    6.76105055708058    0.01897077982901
C         -10.06370771012840    7.45479196165448    2.80949312995681
C         -10.41335857657578    7.85243885919264    4.09005320895660
C         -11.34218151627058    8.88730884216371    4.13244493970257
C         -11.89458857843251    9.45792343942429    5.39194313649250
C         -11.74793885416664    9.28820630933379    2.85759681670391
S         -10.91293676573001    8.38670707028539    1.61936772208433
C         -12.64564877669178   10.33267533121159    2.55297315269854
C         -13.31049412223634   10.56573151637032    1.38528651321335
C         -13.55219425370724    9.72284746083707    0.23458495824831
C         -13.73084283619656    8.36363628432217    0.25430523303154
C         -13.99681549976030    7.58756886696864   -0.88902507115571
N         -14.18857191854169    6.90804278212656   -1.79465626384689
C         -13.74706113978894    7.61189118538412    1.44775488399737
N         -13.83867460246593    6.98057658288487    2.40229045407395
C         -13.87045442918654   10.60114967241827   -0.88482808491060
C         -14.06974815964434   11.91374585238663   -0.38601883653611
C         -13.80704534364323   11.92836404690447    1.06957266762249
O         -13.91975421935010   12.85963574091554    1.83437145129837
C         -14.44036052826261   12.95874415874625   -1.19680138187172
C         -14.61076454908457   12.69861653642798   -2.56110308325976
C         -14.39365981504293   11.38807833123949   -3.04943655217211
C         -14.02777346859971   10.32774510518544   -2.22941478768603
S         -14.65115602654570   11.29422666223012   -4.76518701366860
C         -15.04873338917452   12.99181341613581   -4.80230191978091
C         -14.98879920011211   13.60000224607437   -3.59421521419349
Br        -15.50322850849648   13.79928223455657   -6.43298810363953
H          -3.03546078894361    5.67940854341934   -4.63781806727151
H          -0.48274933419098    1.47062019489459   -5.56772250650764
H          -1.55898546934095    6.74189574449380   -6.77408465585822
H          -3.75737707762513    0.45766470493203   -1.21329004919773
H          -5.19118057383141    0.23079326776498    0.68279513064946
H          -7.21452933265292    0.20716285101395    2.26922893093251
H          -8.08886597919645    1.71127628190300    2.60931246291876
H          -6.53601355000379    1.40368376212910    3.37871964526731
H          -7.79515958470116    5.36156966811718    6.45154598830111
H          -6.18449446014537    3.59906527428589    5.56252609377131
H          -9.99204131432308    7.38235691184787    4.95867632021869
H         -11.34240426186035    9.08151030183341    6.24819713596257
H         -12.94148036605928    9.17773494546670    5.50149171615358
H         -11.83875853556853   10.54540242747204    5.38319070073058
H         -12.76555764101603   11.10082712685878    3.31146695187393
H         -14.59718212796665   13.94657036866553   -0.79289994926310
H         -13.86927534782644    9.34482883237467   -2.64159461850464
H         -15.20242984696390   14.64121089525806   -3.43555124837526
