93
 SCF done       -221.534910259601          0.000886273643
C          -2.28207172123959    4.72479792264783    4.72489499776482
C          -1.19273898497836    5.31076273463496    4.13894204414112
C          -0.02660418855279    5.68715797741676    4.84299083855939
N           0.94962534313197    6.01061809627026    5.35130858900718
C          -1.05298373032951    5.66268795737672    2.77788571058646
N          -0.84955742663745    6.00519460912130    1.70126274815616
C          -2.42543791417544    4.47578392448361    6.15261358935554
C          -3.72240987450122    3.96060752392861    6.39435695631697
C          -4.19160585649483    3.68640068307710    7.65894712474419
C          -3.33924126264786    3.92736867707476    8.74038690840647
C          -2.02888080604363    4.40775042047630    8.48541245710757
C          -1.55827317589426    4.68869080393861    7.20892130523650
S          -1.12832140669045    4.61984511265693    9.95316414295203
C          -2.50888381637339    4.08884113689776   10.88100784570623
C          -3.58918048697959    3.76263961967092   10.13053915152433
Br         -2.38915248139657    4.00740136209290   12.74935471644583
C          -4.44453987098988    3.82873282229749    5.12327043735510
O          -5.57250964091952    3.37455486580977    5.00876772652626
C          -3.52187184818947    4.30962294912001    4.06809210284291
C          -3.68341823974522    4.30089606022267    2.71086078326787
C          -4.81133285262201    3.98604796224827    1.91362258850276
C          -6.12996866182435    3.82591378133838    2.25529781938564
C          -6.94665313943233    3.43776291379672    1.17669222075887
C          -8.30780612524808    3.07705169712732    1.17499916160171
C          -8.86512202138257    2.74558213933514   -0.06017952351660
C          -8.03589799351790    2.81398577785290   -1.21623454173927
N          -6.75598397705372    3.11358913605971   -1.22128539115743
C          -6.22590857861524    3.40065858182352   -0.05003562784048
S          -4.55249436695446    3.76473139163225    0.17782142870770
S          -8.88328193476615    2.38770474445743   -2.67243468923776
C         -10.31606398408639    2.05662077342036   -1.73306851490376
C         -10.16747343257195    2.27120747574164   -0.40318443348868
F         -11.12929105290109    2.01894678992453    0.49298134252988
F         -11.40874949386346    1.62123377025613   -2.34347064499342
C          -9.02369374912488    3.03481813126121    2.44451313500251
C         -10.22442895441796    3.71404707851510    2.67903277313330
C         -10.82324106789877    3.73740664710271    3.98336813189143
N         -12.00682195907783    4.36478737492859    4.15703242341663
C         -12.56021576448336    4.95659623214610    3.15344273097767
C         -11.91765926054157    5.00571630488743    1.87822439469388
N         -10.79489477209363    4.41103678165929    1.66546637627228
F         -12.45862584185458    5.69057875897808    0.87895020681792
F         -13.73469400127224    5.54091328682503    3.34030430754743
C         -10.19480981473413    3.17208642321728    5.11201217435013
C          -9.00022202201414    2.46753168640943    4.86889359239051
C          -8.45471295077120    2.36847824966436    3.53692684725770
N          -7.34902329617625    1.61142802562437    3.50517592549151
S          -7.00063873381719    1.15194045283400    4.98126066051928
N          -8.23662809211614    1.80704022083112    5.75348816465610
C         -10.73323147674527    3.31578508438048    6.43210833027306
C         -10.04232437217862    3.06460758371650    7.59116546705650
C         -10.82011077800915    3.22369580309812    8.75231425636589
C         -10.47577128589471    3.03389270525133   10.10700050576212
C         -11.48159870094992    3.32640590486779   11.04225867092417
C         -12.76009011976104    3.72743708083605   10.57235887516391
N         -13.08910290904936    3.89189998151933    9.31151256715545
C         -12.14199682589109    3.64992220155983    8.43107373917173
S         -12.37815654128237    3.82466350629699    6.72110361432079
S         -13.90001244873380    3.97663762286169   11.86344639240207
C         -12.67664008045331    3.52897951098507   13.01857729488978
C         -11.47919572221897    3.21456683659716   12.46124230250918
F         -10.40552260795685    2.84118503639099   13.16999773245704
F         -12.96401571881405    3.52526397128533   14.31221403464725
C          -9.15934755207506    2.62048202175032   10.52031378991757
C          -8.32759186603922    1.71318747280548    9.95388438182973
C          -8.51594838793974    0.72320255274318    8.90533313772985
C          -9.70629164205697    0.19369574182197    8.48485883801947
C          -9.83120897726761   -0.66716041797765    7.37524683353723
N          -9.98331215298226   -1.32592940471597    6.44797702606432
C         -10.93617384021221    0.40480674206621    9.14145315916067
N         -11.94300258117997    0.48583108243630    9.68590410347091
C          -7.19348143872703    0.30255892406194    8.46262109507707
C          -6.21392927777420    0.89332652969790    9.30058185884142
C          -6.87869393531483    1.75227543627413   10.29654591685375
O          -6.35313001932615    2.43042688588291   11.15064520069541
C          -4.86722380395394    0.67046915020847    9.13640791795450
C          -4.46486241566102   -0.14741575619600    8.07683311610788
C          -5.44935205996945   -0.74597884147084    7.25462139097951
C          -6.81220266345914   -0.54910987697128    7.44192561230432
S          -4.73283104067943   -1.71247443794420    6.00210279374436
C          -3.14095079207276   -1.29922101599713    6.58687126130859
C          -3.14601947105523   -0.48554272200920    7.67012473216410
Br         -1.62850013698509   -1.96991818871606    5.70679072264634
H          -5.19291760401206    3.31300069849340    7.80947064067336
H          -0.55819765707832    5.06435218047537    7.07473571414231
H          -4.52409602647566    3.43328209863784   10.55136291045273
H          -2.80811397217446    4.54678440244966    2.12187172730616
H          -6.49061357337190    3.99355452819539    3.25021710640636
H          -9.00031617820249    2.80760119932300    7.58010756670903
H          -8.74567740563186    3.14277017984053   11.37857961510482
H          -4.14148734512522    1.11124955396639    9.80117814590502
H          -7.52676335941918   -1.04586814411723    6.80816684627199
H          -2.25621793177942   -0.13640925171953    8.16142984190306
