113
 SCF done       -230.309737814051          0.000497705948
C          -5.02828955751142   -0.52391476256816   -5.39299467676730
C          -4.71933592888467   -0.04165192725243   -6.63836383970083
C          -4.16707404312455   -0.82534909851853   -7.67404314812349
N          -3.71932857259618   -1.40626933348774   -8.55705584963559
C          -4.87998666823657    1.29099853392209   -7.07309126109409
N          -4.97027215609671    2.35009824087576   -7.50839689239694
C          -4.82230743935594   -1.89816857579448   -4.94818556028951
C          -5.18565709004186   -1.99509808546089   -3.58235429887379
C          -5.10696579494274   -3.16770268700548   -2.87118962921859
C          -4.65130582802595   -4.30643371515629   -3.54289920749964
C          -4.29218661816456   -4.20340118118060   -4.90861836466973
C          -4.36845006994447   -3.01547285724758   -5.62527292778889
S          -3.76142192477792   -5.72993323103178   -5.54573227133322
C          -4.02580739597584   -6.47551300927270   -3.99164246498755
C          -4.48714516396378   -5.62665065639925   -3.04237519064413
Br         -3.66915379919673   -8.30274658715877   -3.76981951462367
C          -5.64614070259425   -0.67933298728740   -3.10794464960657
O          -5.99666870976623   -0.40592308156642   -1.97719813226431
C          -5.58872869073697    0.21868412329298   -4.27539569937180
C          -6.04030230703082    1.50765534301702   -4.31784479378409
C          -6.64731405081150    2.29729127419316   -3.31801934189708
C          -7.12382155595785    3.56929856331214   -3.59607240274550
C          -7.74634373175207    4.19496467994625   -2.51099381160425
C          -7.71294924668263    3.37034766208508   -1.35726693019865
S          -6.93149648384961    1.84816772133451   -1.64871256266133
C          -8.26065601171821    3.77354218093062   -0.14957408121570
S          -8.14412860811423    2.68946922512945    1.23140106861473
C          -7.67030977924007    3.79989618660774    2.60292636892573
C          -8.95386964245110    4.99854896560249   -0.13080064780848
C          -8.97926753610789    5.83501351425653   -1.28776409358986
C          -8.35789517738849    5.47398718747234   -2.46738002641893
S          -8.31468958145699    6.40337836572554   -3.95882351175942
C          -8.36160716564912    8.14311002546908   -3.43990800392962
S          -9.99486501563773    7.23618080873231   -1.00573534178226
C         -10.39731637661088    6.68051912469496    0.59847773560508
C          -9.75999352838555    5.50115415351214    0.90327363235288
C         -11.35270337340452    7.39394609222739    1.37518110936918
C         -11.70310158378309    7.05879944932130    2.70694932368311
C         -12.82892521216815    7.67011947311912    3.38094524226045
N         -13.13723742065492    7.28214796527678    4.62614744966294
C         -12.41674124642250    6.36652566451427    5.22828292883765
C         -11.27996773771484    5.79744899536438    4.57991147581353
N         -10.95995380269009    6.15349942654280    3.35662229026570
C         -10.45493067860932    4.84888152549914    5.23071895891794
N          -9.78157122682736    4.07401914470992    5.74031439459260
C         -12.77202917875527    5.96071999729466    6.53871723155257
N         -13.03448272244162    5.60182728449248    7.59450607725287
C         -13.62683284420260    8.66004872100963    2.75523903804876
C         -13.17982092915689    9.08735763602517    1.48801411105154
C         -12.06878729234817    8.46953855706894    0.81350646326064
N         -11.85174835015098    9.01115354286244   -0.38423665505032
S         -12.92627963939460   10.18218354802298   -0.63733251457854
N         -13.72793794235160   10.05339520489629    0.75184241205824
C         -14.84216128392132    9.16903777560598    3.29655879295961
C         -15.50642507554263    8.78550334074193    4.43650103936379
C         -16.73723900461301    9.43456302069074    4.62615520668124
C         -17.03617923686995   10.34836603413417    3.57907237845433
S         -15.73298463084947   10.38557616439103    2.41399453251595
C         -18.22733597581801   11.05295627792423    3.55205339101737
S         -18.72181599057750   12.23240037349248    2.34347788186364
C         -18.00155965565684   11.65377039388761    0.78047671747829
C         -19.12331855244290   10.84625425107921    4.62414055519767
C         -18.80376536636546    9.95575131951578    5.68421192451409
C         -17.63097939915676    9.22478827636536    5.69935211033756
S         -17.13306812200768    8.08598449495900    6.94612438898095
C         -18.66796025627221    7.23318407241292    7.41812717159448
S         -20.07607378908983    9.93408374032912    6.87350124261451
C         -21.06231427340901   11.01447864540822    5.90890429649713
C         -20.39195809701432   11.43557137014194    4.79025682786560
C         -22.37120253586920   11.39684171713407    6.30455639961450
C         -23.23471158526093   10.72352951050468    7.10804047053394
C         -23.22494746123709    9.36426666535384    7.61096035556396
C         -22.72320471894556    8.26534635756469    6.96374234552135
C         -22.77290038292823    6.95588706005068    7.48112758084641
N         -22.75446954229485    5.87543237249050    7.86858369908889
C         -22.17281443522272    8.30424542229550    5.66504009513885
N         -21.77359151174095    8.26818293905078    4.58901303186400
C         -24.09343000454419    9.33084103572287    8.78050342985697
C         -24.81513185029065   10.55064699724879    8.84418007796100
C         -24.37175444125566   11.43996343886822    7.75111291690843
O         -24.79641183877876   12.53366820437707    7.46197837751674
C         -25.76163245271918   10.79454259812200    9.80964091260316
C         -25.99716071856223    9.79586996433363   10.76075210655483
C         -25.25875990285194    8.58920555853848   10.69705000962325
C         -24.30834354570917    8.33681737393446    9.71565289393187
S         -25.70293930960371    7.49950281624804   11.97439490858223
C         -26.86376250542838    8.65892291996997   12.56541705812986
C         -26.91500333705871    9.80550377595319   11.84645089302518
Br        -27.89577428411826    8.24627460850138   14.07540598876407
H          -5.39173020942382   -3.20472744400657   -1.83144215372996
H          -4.08517932706819   -2.99222717914178   -6.66405860380660
H          -4.70425069065985   -5.91778091471399   -2.03091984715522
H          -5.96210576643654    2.02446741496578   -5.26695109571085
H          -7.03550612976335    4.02333404425166   -4.56748949802935
H          -8.46739911711696    3.84422888439867    3.33885483353928
H          -7.44873703631858    4.78469545304756    2.20954233603046
H          -6.78355031045369    3.36697940002832    3.05622588766522
H          -7.93348896741123    8.69869459380812   -4.26909868944374
H          -7.75289567956272    8.27072264938845   -2.55162531955319
H          -9.38215006984494    8.46640693449122   -3.26246775607419
H          -9.92403668319822    4.99121623524239    1.83246156386856
H         -15.12320418251609    8.04745510116504    5.11543081081737
H         -18.59011046400691   12.13362814550221    0.00394894239938
H         -18.10500689680811   10.57640295139091    0.71475337497348
H         -16.96160813421735   11.95256078529565    0.69876345163330
H         -18.35252167291596    6.26345716507132    7.79127785482987
H         -19.29654500401014    7.10783567654279    6.54278594617220
H         -19.18770881912330    7.77705362159737    8.20082963272799
H         -20.82047845489766   12.11170216446360    4.07252957843107
H         -22.70249682308322   12.37440071281264    5.96843284530553
H         -26.30599546233764   11.72552558317762    9.83025529905198
H         -23.76596709426853    7.40567099040672    9.70567440478982
H         -27.57262879701632   10.62528981169818   12.07081517785188
