97
 SCF done       -201.146016372522          0.000597575371
C         -10.30121569533002   -1.94456110639146    0.63271543577417
C         -10.03549778549265   -2.44172219481513    1.88339448971453
C         -10.65799347770785   -3.58478036304381    2.42692850128263
N         -11.12806793565864   -4.50589654863310    2.92577884240671
C          -9.11143159617150   -1.90593678523869    2.80475462800986
N          -8.38236925142101   -1.54407087005005    3.61536007036865
C         -11.25347466032900   -2.51523363473268   -0.31757475202272
C         -11.22648612459024   -1.74654526611945   -1.50771668205897
C         -12.01378558724801   -2.02745180488142   -2.59702112200682
C         -12.87777116605792   -3.12397109501421   -2.50716287677387
C         -12.90189068879831   -3.88676608274723   -1.31529464444762
C         -12.10168899470960   -3.60186890928311   -0.21490402286481
S         -14.04376404115491   -5.19249783532277   -1.41616288781876
C         -14.46724137025585   -4.70248168121349   -3.03517011020677
C         -13.78963447628410   -3.61771117571121   -3.47975578867247
Br        -15.76430304024095   -5.66846310781148   -3.98414034942156
C         -10.25527054735156   -0.65119104042390   -1.34975397832966
O          -9.97172386387779    0.19135777446836   -2.18042818036877
C          -9.70342513333552   -0.78513023246930    0.00287476506085
C          -8.78571828270888    0.07199472967574    0.55413243406592
C          -8.19835687676506    1.21825407126617    0.00377370632271
C          -7.29757195265523    1.98962726044951    0.76192697916601
O          -6.95390025493471    1.71137882045302    2.04086314750160
C          -6.33136465563393    2.81567870284706    2.67863695912302
C          -5.27951576789124    3.47832219164901    1.77766283034343
C          -4.58894043391746    4.65037086756881    2.45286413809908
O          -5.90640969978802    3.97009388081112    0.59138299350406
C          -6.81058650848331    3.09995279770607    0.08298501846131
C          -7.33590081893374    3.21695799728960   -1.20522333262914
S          -8.43385897093330    1.92433049097339   -1.58626647393964
C          -7.01478240195278    4.27316937436709   -2.06721953811367
C          -7.48084070110351    4.51805349229027   -3.36757840139575
C          -6.95214542705935    5.73092234616032   -3.93737404160149
N          -7.27159708192167    6.09120118812227   -5.17942660843986
C          -8.10148592236970    5.31446229006096   -5.83892836852988
C          -8.45884025452205    5.74529710614285   -7.21426548114900
O          -8.04379431088938    6.77124516885435   -7.71268926742189
C          -9.37166224167658    4.83908871919848   -7.93177486112354
C          -9.87361417693236    3.72182233788111   -7.39775620110914
C          -9.57577398204483    3.25544811489340   -6.02912332313385
O         -10.06144387583472    2.24030779398883   -5.58146230388285
C          -8.64123393579462    4.11979410456855   -5.26390625045546
N          -8.32103120063980    3.73767244345116   -4.04567270059984
C          -6.09118886923124    6.40922400627466   -3.06008573796345
S          -5.93068452352609    5.53002287508014   -1.56971863330344
C          -5.43320631591337    7.64439352490983   -3.20758536841461
C          -5.61231203835222    8.65038133727460   -4.15215198579908
O          -6.45441445762476    8.57471675374500   -5.19530405255359
C          -6.20167985333650    9.56067831912457   -6.17826025346883
C          -6.00478077636518   10.94011478744403   -5.54090781525637
C          -5.73503810151239   12.02275083145425   -6.57151362538131
O          -4.88354848111872   10.90496221817288   -4.65060213855000
C          -4.82556737391793    9.79388186400536   -3.89594217155105
C          -4.04108126992659    9.69937341676807   -2.74680469361351
S          -4.24822671011534    8.12306460934264   -2.02384505571404
C          -3.15921245321148   10.68429026606261   -2.26734106308878
C          -2.54788078954567   10.75573456892622   -1.04832094196811
C          -2.79346368144895   10.04236848556886    0.18420949753780
C          -4.01906092547978    9.63254066832909    0.64780897890341
C          -4.21326830508754    8.91048829651093    1.83883335869770
N          -4.41661348390933    8.27132686517751    2.77163156521286
C          -5.22505665383342    9.96025051671916   -0.00653828799803
N          -6.22432856808288   10.27500335517808   -0.47627367568665
C          -1.56789334177289   10.10316777367150    0.97158624482570
C          -0.68968632256561   11.03641102653977    0.36382429296319
C          -1.30142619373765   11.54483849049362   -0.88437879557311
O          -0.85832468413479   12.38071493533925   -1.63801630974324
C           0.52991001080027   11.35780589288298    0.90710148667848
C           0.90418466367162   10.72059052298501    2.09559354367315
C           0.02452164822544    9.78222816597305    2.68602961048279
C          -1.21508286897186    9.46455179791177    2.14412067918856
S           0.69179816099019    9.10983543902449    4.14264964260903
C           2.12165779517758   10.08848215340745    3.94478264701189
C           2.10306529989551   10.87698718264624    2.84429437240435
Br          3.50326463640224    9.97302912640624    5.20774692308479
H         -11.96417618763485   -1.41843528400701   -3.48594338132039
H         -12.16026333918569   -4.21473756392802    0.66881952464641
H         -13.92538005618028   -3.18103005034089   -4.45225420332367
H          -8.44897027153894   -0.12349553668876    1.56565915367493
H          -5.87273888454851    2.41880505436860    3.58419814516208
H          -7.09193533620983    3.56051231280020    2.94619532797242
H          -4.54544403195138    2.71270473671883    1.48256392669666
H          -5.31516431031795    5.40272970437494    2.74708238047832
H          -3.89146279928165    5.10845918247293    1.75763159900835
H          -4.04818270706723    4.31167511587405    3.33084238805737
H          -9.62171643333101    5.14317622030678   -8.93945835703984
H         -10.54564093943108    3.08497398187676   -7.95746487044910
H          -7.06542308291309    9.54149314112105   -6.84215059712275
H          -5.30137127306812    9.29119478292798   -6.74615832883479
H          -6.89780674315585   11.18454607472043   -4.94682701356099
H          -4.87050361165548   11.75823441381764   -7.17448848934814
H          -5.53146392183078   12.96250093447206   -6.06640201031012
H          -6.59876007315696   12.14292596163243   -7.21772270942246
H          -2.87577442092129   11.44295201510252   -2.98978568673645
H           1.17627194956068   12.07942299389681    0.43280278336811
H          -1.85569795370689    8.74315198626689    2.62446528366772
H           2.90113442688889   11.54216541755761    2.56944050596337
