93
 SCF done       -196.790007477382          0.000556681797
C          -5.45370601615344   -2.30911158810786    1.33218683738139
C          -5.00493772084405   -2.96087823996961    0.21521832387589
C          -4.59001120063160   -4.30935926834116    0.20399043577549
N          -4.23543950154345   -5.39911713127541    0.13908908117118
C          -4.93469002810822   -2.39888099273664   -1.07837287378080
N          -4.86968827562383   -2.03241503233114   -2.16437887375368
C          -5.63495408395750   -2.90049766298664    2.65009284427223
C          -6.28729117415057   -1.95857007712278    3.48180924654017
C          -6.60068979082860   -2.22055166807377    4.79362601999705
C          -6.25044242878677   -3.47175547364706    5.31054827072806
C          -5.59408818180433   -4.40581270545912    4.47300173053953
C          -5.27977079112042   -4.14183228084054    3.14611251592370
S          -5.24360013437778   -5.88398328118784    5.31653402581452
C          -5.97514027189485   -5.23741973824453    6.76154044656001
C          -6.45721590130144   -3.97963608028927    6.62238654742820
Br         -6.02981155008258   -6.28227037956482    8.31800656289311
C          -6.54413408711026   -0.71559866385553    2.72537559985465
O          -7.10144174546484    0.27118775552111    3.15102793616381
C          -5.91789326584963   -0.93022500146010    1.39309753257095
C          -5.59879986796875    0.02963922908077    0.48451376128964
C          -6.01685928192283    1.39787046296672    0.43729283882516
C          -7.24286577149986    1.89821763358437    0.85980680206226
C          -7.57117021891404    3.25144984176984    0.77228842749009
C          -6.69873522978751    4.20686548349897    0.27682197636616
C          -5.46566451706078    3.72955048733185   -0.21258264729005
C          -5.14135676601274    2.34242126649901   -0.15009918824987
N          -3.93522392734684    2.18830609068303   -0.71265312938494
N          -3.60155680115426    3.39322853347940   -1.08896806669004
N          -4.44816038756806    4.34781759652247   -0.83210124704272
C          -2.35646187388769    3.64808174532832   -1.74498045393198
C          -6.99666666209117    5.62945106946786    0.27128234918296
C          -8.23645176830298    6.14733182943701   -0.12890942753389
C          -8.50549823331026    7.56322049685572   -0.13184433758281
N          -9.73042479181087    8.00727231238569   -0.51323220172560
C         -10.61409856805385    7.15195864780809   -0.89451849369076
C         -10.33365111115928    5.75362832814989   -0.93092186094399
N          -9.19396566186889    5.28575197837622   -0.55673127631906
F         -11.25532256758733    4.89106889369693   -1.35299051827240
F         -11.80899301579920    7.61203006089838   -1.26112550474594
C          -7.55140689071639    8.49935552452541    0.29152978968946
C          -6.30721399445434    7.98495047990113    0.68875202491862
C          -6.03063810790669    6.56498907707399    0.67427444763651
N          -4.79554418447160    6.29950868291744    1.11402580721734
S          -4.06358282885167    7.67944489797734    1.45155959572222
N          -5.24567918216212    8.68886693045407    1.09444071625732
C          -7.82186903947725    9.92582261449093    0.35862941225022
C          -8.47425735129215   10.62606987000536   -0.64245358752998
C          -8.67579800008144   12.00454612044942   -0.58574876792087
C          -8.27128361791666   12.78028941698873    0.49363222137242
C          -7.66822352355434   12.07777263417228    1.55851398199872
C          -7.42043375091767   10.67489795867540    1.48276089126840
N          -6.84396201685781   10.31251526676266    2.63928122137125
N          -6.75166048708188   11.42218269517984    3.31320872685305
N          -7.21277548545971   12.50187893513545    2.74504597502717
C          -6.18190523287858   11.45923358083202    4.62452941909461
C          -8.49561829740932   14.19208333510855    0.60896649112140
C          -8.55703707177329   15.12599251649781   -0.36944583901935
C          -8.19802698885974   15.09379663769016   -1.77582612445027
C          -7.21415335287451   14.33012097606364   -2.34418574836937
C          -6.84210387095379   14.41625997808120   -3.70166051590761
N          -6.51749331610616   14.43913734300865   -4.80231111066496
C          -6.39016965571884   13.43819587805759   -1.62552978136618
N          -5.64585699152945   12.74521160996665   -1.09414985183190
C          -8.87905303488322   16.21052338983797   -2.42087183531722
C          -9.43767716509634   17.04421649425423   -1.41867906704179
C          -9.18413596182353   16.44986889042921   -0.09084202087141
O          -9.46338766716774   16.90645760107269    0.99231710067061
C         -10.10724575147723   18.20651390485625   -1.71647421799901
C         -10.24018915504563   18.55674572685231   -3.06400052738562
C          -9.69198889210184   17.70935913355465   -4.05742317222583
C          -9.00859000792370   16.53767557550173   -3.75749573125630
S          -9.98072394823637   18.32746334948713   -5.65489996510717
C         -10.81692666855442   19.69977993648953   -4.97726199989841
C         -10.88043548907632   19.69582017243156   -3.62457637936421
Br        -11.52761367924461   21.00584181228397   -6.11961026814031
H          -7.09961103729162   -1.48229299218229    5.40173882272326
H          -4.77327012954679   -4.88227987038056    2.54979848175073
H          -6.93798698737845   -3.43051990482733    7.41128935050028
H          -4.87338143229846   -0.22060757626535   -0.28160312755549
H          -7.97893298491344    1.21994375098473    1.25716995530652
H          -8.53521973820789    3.57081100246082    1.13396208284705
H          -1.95507084236243    2.69886940194909   -2.09249365552053
H          -1.65476294777730    4.11155596419514   -1.04931438095740
H          -2.52132330476742    4.32534808875040   -2.58152346136090
H          -8.81584799787544   10.08896740768008   -1.51248513090793
H          -9.19764965628276   12.48020901532396   -1.40384970996509
H          -5.22781433556560   10.93378436090516    4.61990486421961
H          -6.84906304214203   10.97122887681737    5.33703628237085
H          -6.04368663025883   12.50118204419707    4.90323348763379
H          -8.68490725981024   14.55171125658444    1.61553965146514
H         -10.51493513464797   18.82738443914703   -0.93425778148980
H          -8.61254242001874   15.91960468888873   -4.54637262117618
H         -11.35853028625574   20.46351662068978   -3.04400443236317
