151
 SCF done       -273.824012496797          0.000680711088
C         -15.21919941460274    9.33034383191806    5.04083717203496
C         -16.28844333698454    8.76499625486494    4.39790731403399
C         -17.62824446033830    8.91347292731249    4.81390122447748
N         -18.73521701248553    8.99926268346437    5.10568975080673
C         -16.20619684459048    7.93121373597066    3.26174616799360
N         -16.22495575390442    7.23529807301265    2.34862317298473
C         -15.28558070654754   10.12119837285610    6.26200389386632
C         -13.96646083148004   10.39067843722717    6.69881496615477
C         -13.69459603874506   11.11949919884701    7.83128781075727
C         -14.77792754272344   11.60446185686122    8.57060242967633
C         -16.09393000679067   11.33442876366018    8.12396906034552
C         -16.36833036578304   10.59942435865172    6.97787793178134
S         -17.28314682746563   12.03305053068097    9.18133019627134
C         -16.01432092238997   12.66479841079906   10.19711884755204
C         -14.76400681267659   12.37168989534596    9.76754998059192
Br        -16.46011818780677   13.65386676400841   11.72696383695089
C         -12.99593711999433    9.78511228356533    5.76350180081814
O         -11.79033722333276    9.85278848898720    5.85295921868292
C         -13.81656831023376    9.17357125809494    4.68366769039464
C         -13.36092908058822    8.74810167885289    3.47480085395953
C         -12.00434995110573    8.49281850562250    3.07629223429783
C         -11.03606245989705    7.97414867598247    3.94536151695806
C          -9.75298117433843    7.74289051065616    3.50670871956161
C          -9.37911422586400    8.03154658388947    2.19144779107824
C         -10.34859907331451    8.53410363921180    1.31716879352810
C         -11.64109833310767    8.73007561597528    1.74158898434058
C          -7.99365276582279    7.86777190092427    1.74337695919173
C          -7.46963700271064    8.96081342266847    0.90655934021841
C          -6.75517120843462    8.69047223023457   -0.25900043930394
C          -6.28459024598497    9.72357769819419   -1.04638502790764
C          -6.51954146551386   11.04008848446271   -0.68427925703051
C          -7.23864901428179   11.31861940773837    0.46615662107341
C          -7.71690576273112   10.28794904710078    1.25321432518738
C          -7.24058940666571    6.79333139456269    2.08419566067082
C          -5.79271221522360    6.73327606467605    1.83466763921012
C          -4.96762044463903    7.81712968030792    2.13142962150792
C          -3.60664250835016    7.74187066115281    1.90741246932400
C          -3.04803077230969    6.58692117294653    1.38399192761800
C          -3.85754378525681    5.49971758029153    1.09927045690206
C          -5.21847844610691    5.56743277830191    1.33020885425556
C          -7.82283504165175    5.59653621169164    2.70591605182515
C          -8.97959802593616    5.01301559263815    2.18850769945164
C          -9.50064772669493    3.86667301831734    2.74737316972221
C          -8.89392044749840    3.28039479458276    3.85918119177798
C          -7.74115674218029    3.86777336004778    4.38297034868221
C          -7.20185174944442    4.99392834392954    3.80027389482324
C          -9.45696189792648    2.08353246306764    4.47612046894310
C          -9.94172220796062    1.00181631773129    3.72778014326221
C         -10.52063977361645   -0.16377949569764    4.34885569457066
N         -11.00620493290335   -1.16144619029312    3.56599890831361
C         -10.90057076847974   -1.06252700892719    2.28714654258076
C         -10.27163090063502    0.06201138250111    1.67582217819293
N          -9.82470889940144    1.04534856884393    2.37546062764685
F         -10.12876638212148    0.12160643735909    0.35213129827667
F         -11.39541070768129   -2.05025684245168    1.54196423685970
C         -10.64493589510213   -0.28364024147895    5.74031127707823
C         -10.15816453426308    0.79696190033517    6.49319107205046
C          -9.55178183244658    1.95421527602625    5.87078568655346
N          -9.15153039020293    2.84987021287825    6.78237046751124
S          -9.48599766003248    2.29142850324240    8.24350386219167
N         -10.15794771245684    0.90057756551600    7.82838208340037
C         -11.26960460637388   -1.43915865062977    6.37595635087840
C         -12.16115590679721   -1.25259854316252    7.43409802883212
C         -12.80227719531318   -2.32783188240900    8.00730864696052
C         -12.55133850407573   -3.62693264587757    7.56421351131281
C         -11.61412671938685   -3.81698482584935    6.54911409546738
C         -10.99866259000879   -2.73960734244061    5.94837664354702
C         -13.25095063327458   -4.76884744193042    8.17092567594565
C         -12.40467406911729   -5.90181618774935    8.56749568102943
C         -12.79741213301298   -7.21612310104918    8.31631233771506
C         -11.97930414978248   -8.27035432804746    8.67275375154171
C         -10.75777572008270   -8.03226168505612    9.28235941291160
C         -10.35212110952794   -6.73001398120873    9.52275186040415
C         -11.16464130343920   -5.67176027751058    9.16217722204975
C         -14.59560821151110   -4.74661468500986    8.34399421899714
C         -15.32522709913970   -5.74312401102606    9.14264614254614
C         -14.84233688168229   -6.16689863873697   10.38001535071044
C         -15.55150311082014   -7.08516576127280   11.12989531412262
C         -16.75243299318701   -7.59205357303958   10.65963462772465
C         -17.24748215193034   -7.16545399438795    9.43836305738543
C         -16.54468401053583   -6.24341818919792    8.68569928972772
C         -15.43601233889958   -3.72329212249251    7.71285464065089
C         -15.24568422822952   -3.36535463692775    6.37609897081666
C         -16.07977057308905   -2.45891583162000    5.76588453336619
C         -17.16706438355576   -1.91103728573363    6.45607779037993
C         -17.33900743190277   -2.24686046318167    7.80484588779020
C         -16.48721691564154   -3.13394502876295    8.42002189933463
C         -18.05036298971553   -1.00542277988634    5.77275197466685
C         -19.37279808823592   -0.79208144715011    5.96951874303670
C         -20.38289665852376   -1.49691160443344    6.73836193848687
C         -20.40555957622404   -2.83440428250990    7.03147402778030
C         -21.46779284183935   -3.46843152463768    7.70905629483915
N         -22.29846648343374   -4.02776796605302    8.27001487722174
C         -19.42602474873933   -3.76569835910270    6.62721740896422
N         -18.71128466184947   -4.59527465964716    6.28297449277540
C         -21.50165562363473   -0.57768844400655    6.92227296738029
C         -21.29971935832535    0.55981397010396    6.09983454733899
C         -20.00314613270459    0.43556070964872    5.40625665763643
O         -19.52078927936684    1.18651633270725    4.59126069898788
C         -22.20710738242842    1.58876382881350    6.02556621024972
C         -23.36230230607447    1.49736230087988    6.80845665985507
C         -23.54796536278991    0.36503358334402    7.63796474137066
C         -22.63525520330134   -0.68006685710455    7.70676120552109
S         -25.03585589778427    0.46412657483243    8.52962847722731
C         -25.38500809102987    2.00186859684455    7.78425891352253
C         -24.43779272011141    2.42167110219330    6.91259236595570
Br        -26.96636892335423    2.90596476123863    8.22886868184645
H         -12.67732479592734   11.30723153678542    8.13736229917970
H         -17.38751269218204   10.42727744026770    6.67478174076180
H         -13.86763339400076   12.68340539425316   10.27188309213825
H         -14.09143547042648    8.62319277262638    2.68318822264140
H         -11.30240387806066    7.72944291283304    4.95998243090530
H          -9.01695683886035    7.35493157667386    4.19418305433027
H         -10.07693615193500    8.75007527385109    0.29387959416190
H         -12.38306535705364    9.10673701406825    1.05206082553414
H          -6.58112011315185    7.66520851502124   -0.55051154001567
H          -5.73433185643490    9.50108557018840   -1.94873772602410
H          -6.14767117495535   11.84596116780191   -1.29938400393192
H          -7.42872307424788   12.34323027073465    0.75067320464975
H          -8.27403156534213   10.50650577052371    2.15346858771579
H          -5.39800782152322    8.71421000352780    2.55132319412440
H          -2.97764425277056    8.58758647499906    2.14355740572680
H          -1.98470038859765    6.53295946157913    1.20365487245954
H          -3.42628112944523    4.59504382914922    0.69633443817127
H          -5.85016577901176    4.72013993241436    1.10385815184086
H          -9.45995795005947    5.45869008683299    1.32986254013413
H         -10.39483696802674    3.42709676406075    2.33574368913023
H          -7.25968631709343    3.42013587645095    5.23816820623629
H          -6.29872979618042    5.43027378680336    4.20258759493388
H         -12.36492868283132   -0.25358713202808    7.78605947542987
H         -13.50155543096433   -2.16965380159509    8.81534125926544
H         -11.39228556351668   -4.82049507828850    6.21534144268474
H         -10.28979524939430   -2.90041597852949    5.15211534881663
H         -13.74198150343060   -7.40502616000781    7.82851267836956
H         -12.29409091921975   -9.28372334064655    8.47148276817584
H         -10.12199330177110   -8.85864794244064    9.56350174100496
H          -9.39787360673482   -6.53841517543969    9.99161344279258
H         -10.84890060989315   -4.65575528623882    9.35371631178187
H         -13.91409825418264   -5.76251213606683   10.75667808253392
H         -15.16808843397691   -7.40412716966217   12.08816599217316
H         -17.30311631851304   -8.31209635953992   11.24662407853822
H         -18.18704126226389   -7.54954138999989    9.06966710410771
H         -16.93650035992204   -5.91392295605146    7.73396325607292
H         -14.44765381528648   -3.82195224412661    5.81133103043984
H         -15.93180645426659   -2.20361199391847    4.72719491766198
H         -18.13234001102810   -1.78114798554543    8.37263809139813
H         -16.62932594079400   -3.38349971964063    9.46174406760398
H         -17.59346414442450   -0.36813770763429    5.02097717726315
H         -22.03031875765842    2.43805308654922    5.38444132074606
H         -22.81627355550589   -1.51927738054801    8.35787858641750
H         -24.49183247071067    3.34485066983400    6.36506771058345
