135
 SCF done       -259.184414924819          0.000346478016
C          -6.57598297590688   -4.21736619509314    4.81067779407534
C          -5.29905248973540   -4.52971429141946    5.20703824825231
C          -4.88023516370618   -5.82524680970465    5.57447458093487
N          -4.47421069320675   -6.85383024882899    5.88391684987069
C          -4.22250803435617   -3.62630700365277    5.31823309692132
N          -3.29396198429980   -2.96068538511623    5.44216529755221
C          -7.68168430982493   -5.16804235467645    4.72304641771057
C          -8.84446119569331   -4.47449180310527    4.30742943135481
C         -10.05728979226530   -5.09328161060682    4.13057249588117
C         -10.12828688956765   -6.46875943863161    4.37620481158870
C          -8.96290424230306   -7.15490796535652    4.79148724185779
C          -7.73584562213624   -6.52675007375274    4.97011115508490
S          -9.27181660956867   -8.84678701994384    5.03950787655576
C         -10.93945181054229   -8.61212357028835    4.58812804049728
C         -11.25125815745021   -7.33385567799274    4.26767965126941
Br        -12.11165142130811  -10.07630841643520    4.58188697075701
C          -8.51328291237328   -3.05099568030832    4.11500311503248
O          -9.28612325317684   -2.17594336922009    3.76531335174370
C          -7.08601293367761   -2.91810152324385    4.42283438280904
C          -6.35042488854661   -1.75977488333878    4.33708447788847
C          -6.73454163865418   -0.46028611407104    3.98930904111911
C          -5.81438943861555    0.60080654836245    3.95137082959470
C          -6.36065066292111    1.81695810118520    3.60611762972471
C          -7.74998943576221    1.68622882653417    3.36808347487351
S          -8.34363004693824    0.09182693915131    3.56818582904204
C          -8.41062517181276    2.87661252619017    3.00797679910211
C          -7.60131555360622    4.02737261733796    2.92813966556447
Si         -5.82268856761313    3.59130566630253    3.33039000409373
C          -5.19029539900284    4.44840512373579    4.85635005664685
C          -4.81989665587670    3.74764758328068    6.00710160695423
C          -4.32734049953920    4.40514677147157    7.11906330263609
C          -4.19389076807573    5.78333947632275    7.10833337279871
C          -4.55742831735945    6.50017875141482    5.97983054383648
C          -5.04860094497913    5.84013092770602    4.86997692092194
C          -4.69909823267351    3.77087077919100    1.85300299888626
C          -5.06544448505242    3.24539293120207    0.60890834930987
C          -4.24236384185040    3.37193088966299   -0.49311222854611
C          -3.02816495391681    4.02959541238212   -0.38004427232719
C          -2.64437173358411    4.55776116148559    0.84096331340737
C          -3.46993726165918    4.42857430504012    1.94227231872905
C          -8.34452220999937    5.14214308099594    2.58120217646833
C          -9.70104580031941    4.88137167051245    2.39295561831741
S         -10.06137632681633    3.18798812700317    2.64771290191103
C         -10.74011447660654    5.78233039590689    2.04335951566789
C         -10.56420341798240    7.17816027101587    1.86059089486074
C         -11.66643379391728    8.03393883065459    1.48686953094211
N         -11.46103087241812    9.34379420380177    1.31522583851435
C         -10.26879956780659    9.85794518075887    1.49382911849330
C          -9.18149597646063    9.01330616893836    1.88075640124266
N          -9.35581405439607    7.72379905329403    2.04666213825387
C          -7.88921101848998    9.55103147949490    2.10113566987045
N          -6.84870467223848    9.99617739865637    2.27893592872125
C         -10.07250152438861   11.24783769773171    1.30825787776309
N          -9.87440473161407   12.36760748394324    1.16988568335907
C         -12.98668114330017    7.56141335121477    1.28686545080085
C         -13.16623594820579    6.17289875855615    1.49130112843642
C         -12.06401728778792    5.31768322390897    1.85746238032107
N         -12.44952856244506    4.05068694502476    1.99677815077994
S         -14.02306488148804    3.93555340096758    1.70440657239515
N         -14.30297925111914    5.48416316915966    1.38452954770399
C         -14.03273718741460    8.43759041812125    0.90823805320835
C         -15.36698386130554    8.10433072067048    0.68057420834244
C         -16.15942674502531    9.18152527435125    0.32162858686755
C         -15.40395929292401   10.37091450347575    0.27017687331215
S         -13.74570710299615   10.14275845022510    0.66706575747016
C         -16.11801517537046   11.52437131333617   -0.10739126725155
C         -17.49003149395060   11.33451226899896   -0.36670788898034
Si        -17.94908170708890    9.53547753818329   -0.09776487790500
C         -18.62455570957777    8.79019006097702   -1.66462853098385
C         -18.17579765641072    9.22506197294399   -2.91706129169616
C         -18.71556511409879    8.72134661490408   -4.08493153989800
C         -19.71280107218196    7.76162929223892   -4.03174978735630
C         -20.16336642341426    7.30649819414597   -2.80353314602345
C         -19.62681026456212    7.81591666390122   -1.63625207761136
C         -19.07028900516379    9.26914474174684    1.36855142015693
C         -20.41444296895151    9.65003751940198    1.30831185877090
C         -21.26870865278687    9.44440385794712    2.37442650425181
C         -20.79975281210501    8.84747344817305    3.53323556300825
C         -19.47319141426072    8.45998445309878    3.61632614325019
C         -18.62097120000735    8.66967381991413    2.54803725641531
C         -18.08037018605459   12.49756089566025   -0.82494619937150
C         -17.20791424734501   13.58166864456180   -0.90780822024929
S         -15.60531599092735   13.13880564795576   -0.36295256368523
C         -17.47840845667671   14.90366030443055   -1.30972811506993
C         -18.51188033193733   15.34903202632961   -2.08633782406502
C         -19.42145622849884   14.66107847668657   -2.97188346833066
C         -19.16524146404388   13.50440255356946   -3.66695943918172
C         -20.06709761947971   12.90153232492393   -4.56449491930468
N         -20.77386726581994   12.35073928440116   -5.28280599643336
C         -17.93169627690904   12.82736487366478   -3.62926334394973
N         -16.93421941282911   12.26066482629509   -3.68252790744759
C         -20.54961381876031   15.55362760491612   -3.21791358086676
C         -20.23960627283022   16.83134795998975   -2.68779563570690
C         -18.91841595156556   16.77585508993126   -2.02550254350324
O         -18.31389249264999   17.68394454942437   -1.50238052568186
C         -21.09130109223604   17.90220389160329   -2.80409142919678
C         -22.30882836060270   17.69970448634303   -3.46398275104864
C         -22.61298768365438   16.41681441671847   -3.97807156756025
C         -21.74787400062636   15.33471045749966   -3.86904996088143
S         -24.17116040574176   16.38840188208731   -4.74603053482777
C         -24.38851214541623   18.07851609629202   -4.37593530332039
C         -23.34998286260308   18.63648313172020   -3.70987757651381
Br        -25.96684432566540   18.94420524342995   -4.90184866991365
H         -10.92372988895505   -4.53471610301753    3.81290117053530
H          -6.87872493128559   -7.09657495919237    5.28696993129658
H         -12.23170482773252   -7.01258198758064    3.96685932603593
H          -5.29548149567607   -1.83783732943778    4.57069074025906
H          -4.77286018560088    0.44724113219613    4.17629351502482
H          -4.92133124986762    2.67199896204361    6.02406769293718
H          -4.04567679309143    3.84147282801918    7.99661757105979
H          -3.80844951399033    6.29761577761900    7.97636697631334
H          -4.45692396617836    7.57554196230159    5.96508679726483
H          -5.32830081879307    6.40720643495707    3.99353812728106
H          -6.01212662797157    2.73153745609542    0.51341619435809
H          -4.54610733664899    2.95790345146679   -1.44371382300556
H          -2.38400914535132    4.12967683188324   -1.24113445769098
H          -1.69890510662550    5.07167801164043    0.93447488975679
H          -3.16376326562051    4.84302449179672    2.89214667667099
H          -7.93532277936066    6.12741491222644    2.46309294787156
H         -15.71785349441101    7.09335325113521    0.77870526185240
H         -17.40253294147935    9.97789596489441   -2.97133891621247
H         -18.36157840580499    9.08424911480781   -5.03836790286132
H         -20.13934569864643    7.37198927992747   -4.94409922062069
H         -20.93993212443975    6.55679143921167   -2.75624486971944
H         -19.99073998870812    7.46387356389723   -0.68107559723381
H         -20.78894923620270   10.11044146363724    0.40489387696006
H         -22.30313019071363    9.74789775990006    2.30330154107441
H         -21.46637885694290    8.68460231551607    4.36722978568079
H         -19.10261942170966    7.99235768944476    4.51700363894673
H         -17.58751232920541    8.36292704822350    2.62112232492440
H         -19.12689257002054   12.58063595538699   -1.06139450041896
H         -16.83409650283483   15.67917688096116   -0.90804868237739
H         -20.82776727768283   18.86733171487757   -2.40098103072260
H         -22.02138153879918   14.37372292043533   -4.27280104643063
H         -23.31736522951134   19.66599017551281   -3.40338005017754
