81
 SCF done       -160.388343428303          0.000549772854
C          -7.59144483052271   -1.39479020107798    1.99651189147134
C          -6.68188508725566   -1.30103828415884    3.02140752720703
C          -6.57397562046787   -2.23943077058645    4.06776961898840
N          -6.44281153054018   -2.96472526916849    4.94844175786743
C          -5.70565859526118   -0.29300157771477    3.16023425903823
N          -4.86374280679749    0.46808100593218    3.34049797839374
C          -8.52412158095172   -2.49815613541029    1.79772462699856
C          -9.18501264754813   -2.30886169681621    0.56085591027580
C         -10.12432731399126   -3.18742110788707    0.07951871318019
C         -10.42669716093418   -4.30979357445778    0.85793586796164
C          -9.76459568479354   -4.48871885745922    2.09547440424031
C          -8.81437781149647   -3.59893828030713    2.58178655543966
S         -10.29065626731036   -5.93758048570075    2.89803980949605
C         -11.37497864911198   -6.28015740581542    1.57616666737047
C         -11.34783397222345   -5.35805635584324    0.58502912054965
Br        -12.44154895543870   -7.82210632427213    1.63030498604989
C          -8.69801974726245   -1.06714141567557   -0.07690853316043
O          -9.07054500823742   -0.63130151489492   -1.14586322957848
C          -7.73201909222648   -0.48053157228574    0.88113935542505
C          -7.19921238417944    0.78600244021306    0.84874808453065
C          -7.16516724740371    1.74495459671877   -0.18330626939714
C          -7.23292798269036    1.47870358387781   -1.54104506305519
C          -7.13558171976911    2.59512932919111   -2.40108910161394
C          -6.96725000158832    3.82298830206079   -1.78549099927931
Si         -6.86498070657854    3.58561265769756    0.07076369056134
C          -6.84438696404261    5.07340058553753   -2.43781270164388
C          -6.96682966401153    5.33967771541610   -3.83417145574360
C          -6.69452876815744    6.63682049534932   -4.39501122287631
N          -6.81905156625121    6.82330259046903   -5.72304307702717
C          -7.17589741169679    5.82029303847325   -6.47699535973007
C          -7.45221505260200    4.55616763410121   -5.92822905850267
N          -7.35347360743190    4.33722259126609   -4.64604778407117
C          -6.29366026133856    7.74297643817082   -3.58961069466241
C          -6.27167474377007    7.49170745291599   -2.20069058409021
C          -6.53838229094666    6.19986052303445   -1.64234415820322
N          -6.43207047917023    6.20267727101910   -0.31293712997562
S          -6.04260202620160    7.68109588995320    0.18239962021565
N          -5.97820572543366    8.38974002367566   -1.25926417953263
C          -5.91068146921694    9.03414932338431   -4.02595062650835
C          -5.74465711710383    9.43519922123071   -5.33642935609516
C          -5.40189264629307   10.79507272738183   -5.52003306419576
C          -5.26965876357919   11.55783275911229   -4.38003935150932
Si         -5.53012741410155   10.45825377885058   -2.86948018240926
C          -4.91354696865738   12.92520804226432   -4.38514141963269
C          -5.21273182680406   13.88837722050694   -5.30604456372972
C          -6.15700368731214   13.91622668772729   -6.39929350911881
C          -7.34835403936626   13.23774226627377   -6.46389532093648
C          -8.26660755659595   13.36405314529902   -7.52410689072456
N          -9.03372457542057   13.42259616161773   -8.37665351015058
C          -7.81960979990921   12.40353434884087   -5.43150156763644
N          -8.27048799166794   11.75667037992150   -4.59662674646189
C          -5.74193179426479   14.98584717765288   -7.30185777143779
C          -4.71948541016604   15.73970160078949   -6.67148613203625
C          -4.41024275082839   15.13605348283337   -5.35789146314451
O          -3.63354369943329   15.53785038711290   -4.52117042719779
C          -4.14296942878776   16.83706530602715   -7.26262462339406
C          -4.58804122903731   17.20087034798117   -8.53843784607232
C          -5.60040831950103   16.43433022526251   -9.16332696000191
C          -6.19064986084995   15.32878336712880   -8.56248999436676
S          -5.98930245642563   17.05286527555299  -10.73960528710122
C          -4.80605703653371   18.31802918441593  -10.53943517065394
C          -4.15149789943085   18.28027887066350   -9.35469972762612
Br         -4.54504667663347   19.56621658669504  -11.91465080853230
H         -10.60902275111842   -3.01583661161597   -0.86882144063081
H          -8.34147313390945   -3.77749943307860    3.53283810687591
H         -11.95164422721880   -5.41270273564819   -0.30233224594620
H          -6.76824036954709    1.13933035766265    1.77891822045452
H          -7.31035427297411    0.48413657025763   -1.94808627817936
H          -7.17915315193532    2.48162203811403   -3.47160096073736
H          -7.94248703254052    4.20334805026950    0.83772849681238
H          -5.53040820494213    3.79013002881428    0.62583676924802
H          -7.27070134430940    6.01759730564304   -7.53619040863463
H          -7.77758237740753    3.72533411951707   -6.53944052110082
H          -5.86387017732833    8.76756980983653   -6.17351823973607
H          -5.20031963171311   11.18211756283636   -6.51031951335017
H          -6.62168940898027   10.94717026529707   -2.04279096574678
H          -4.24467916965802   10.31276141471958   -2.18557107463258
H          -4.27821187355899   13.25968193143031   -3.57022370135013
H          -3.37209907364152   17.39830943634159   -6.75838425657130
H          -6.95501117982432   14.77057665941989   -9.07758514577277
H          -3.39113123596786   18.98293202047903   -9.06651436335603
