93
 SCF done       -204.705074671958          0.000398636267
C          -1.85077397343753   -0.38419044753537   -2.70028128225585
C          -0.58286122329970   -0.31525076597830   -2.18771744999280
C           0.50820726228846   -1.06666242083825   -2.67631698613339
N           1.43234825166336   -1.64937631127100   -3.02698902800404
C          -0.18067191368234    0.48241084116418   -1.09467333571015
N           0.22046580393014    1.09372289212252   -0.20957952262845
C          -2.27530864161933   -1.25114708327653   -3.79365409897900
C          -3.67508337982366   -1.11108121069326   -3.97190374092134
C          -4.37682740303381   -1.80433976761953   -4.92879125825069
C          -3.66198541295873   -2.67705552045438   -5.75509261132544
C          -2.26328324608902   -2.80938773219860   -5.57368112728706
C          -1.55567281151210   -2.11007108911947   -4.60350416735499
S          -1.57648673777437   -3.93468685422894   -6.70320857836402
C          -3.15331244525451   -4.21032122417302   -7.39508280667035
C          -4.14560218525098   -3.49623710493310   -6.81065478232962
Br         -3.34031551133282   -5.41120299468812   -8.82201006824588
C          -4.18821123226581   -0.13697085970589   -2.99951711183310
O          -5.34929836133388    0.20811139020955   -2.85997777343961
C          -3.02443920723204    0.34425137996140   -2.24295663163726
C          -3.04056652592714    1.35449701435672   -1.32120680945812
C          -4.11643246306880    2.11517197809141   -0.82565710994903
C          -3.91427724537529    3.16385378907911    0.07810837406429
C          -5.09706925879405    3.77804982327776    0.44770790220925
C          -6.22045946501694    3.18164943318291   -0.16764159291245
S          -5.81987109251727    1.89605135855191   -1.21105397880727
C          -7.37563374801667    3.87802117960234    0.27315407400865
C          -6.98906695459108    4.90370787016997    1.15355904916952
C          -5.54208466011908    4.87379205212321    1.29664569728470
C          -4.77094905179320    5.69525336578651    2.06294557436565
C          -3.36497919373506    5.57431048409193    2.11328487522739
N          -2.22351200267843    5.48189114316276    2.15398064342948
C          -5.32692616552285    6.72023783719324    2.85912520898476
N          -5.77834171746304    7.54797215089041    3.51061721150970
C          -8.07014049637817    5.64806740180005    1.62660256894724
C          -9.26925918459115    5.17621071100560    1.12861435028112
S          -9.06384452259129    3.81388354618281    0.03942629177085
C         -10.54783191749983    5.77317161553557    1.37304668340685
C         -11.86147645592085    5.37553405721771    1.15914273734146
C         -12.39980917537589    4.09166385738132    0.68928363777114
O         -13.39308754593465    4.00500239937501    0.01760221036521
O         -11.73697767839380    2.98625767153550    1.07041725655940
C         -12.62425142604275    6.53366185706608    1.53347861525071
N         -11.81087530306415    7.48201019157131    1.94972729226392
O         -10.55035426669273    7.03046228019584    1.84674992326242
C         -14.04001932628925    6.75571209666712    1.54694984522974
C         -14.62796791735624    7.88228198932056    2.09314203571214
C         -16.01545075984511    7.84677473778374    1.97480896492862
C         -16.46752575867625    6.67775779964035    1.33397946185325
S         -15.19890497582140    5.64026484160240    0.86626130437361
C         -17.88621011476176    6.72210637835133    1.27063403425539
C         -18.32195739956067    7.92282169962245    1.86342658249895
C         -17.16197807022099    8.66498018831140    2.33083887179497
C         -17.17375907303133    9.85955072325089    2.98841124194398
C         -15.99339150305495   10.50476692382037    3.41438613204978
N         -15.04045762017493   11.03989785532145    3.75974848050173
C         -18.38501581636431   10.52274417866935    3.27885602269846
N         -19.37857245868982   11.04998073550823    3.50284603144702
C         -19.70460698352585    8.04876343125629    1.87958528821099
C         -20.33705565811768    6.95100635558674    1.31332883067872
S         -19.17867645932606    5.76617719888018    0.71945780513252
C         -21.71753838336563    6.71840637422520    1.12923133754684
C         -22.77641771910948    7.32295747005176    1.73523554172202
C         -22.90984328931967    8.17076993704002    2.90223751476928
C         -22.13618894334139    8.14413851792789    4.03349193044601
C         -22.41654926530684    8.89662016250632    5.19379560738134
N         -22.60694257501047    9.48014712933261    6.16303274943363
C         -21.03221290596684    7.28825923941723    4.21224815274451
N         -20.14239462484977    6.59053410427344    4.41173651735234
C         -24.18939580506604    8.86341514727694    2.78648457240756
C         -24.93106285768357    8.27862196231363    1.72886365893264
C         -24.11531342984771    7.23209317219579    1.08476592212198
O         -24.43121254001468    6.48543557726420    0.18798625986586
C         -26.19938581573063    8.69335123161290    1.40168550816084
C         -26.75409709083800    9.74194316414362    2.14300253047528
C         -25.99643413693584   10.33207395810918    3.18380200576564
C         -24.71741414385014    9.90675023954399    3.52190373409831
S         -26.86680146848010   11.62076114804239    3.95641323048023
C         -28.22080286539392   11.35040461845560    2.89131491492817
C         -28.03183457388596   10.34858531248540    1.99974629647264
Br        -29.75371803734648   12.41738503087658    3.05443423192929
H          -5.44235629584459   -1.67610287278062   -5.03716754004385
H          -0.49139437332523   -2.24487247887528   -4.50854584557718
H          -5.17613196053504   -3.54431312659448   -7.11155409446533
H          -2.08840998630800    1.65096717732964   -0.89785069596369
H          -2.93491881542293    3.43960523112351    0.42721825138843
H          -8.01252942766845    6.48436722540434    2.29933382212413
H         -11.01797815807028    3.15596571127510    1.69249069653855
H         -14.04695822914416    8.66409665579413    2.54657915864024
H         -20.23634925113967    8.90962159286974    2.24132132226076
H         -21.98426968007327    6.00847965439954    0.35197117720624
H         -26.74653041852798    8.22535991032840    0.59852507887641
H         -24.17204674652232   10.39103375093679    4.31498282377945
H         -28.76164640772789   10.04875075677354    1.27010437028338
