93
 SCF done       -204.025868477820          0.000500665822
C          -0.05210646580244    5.45566660937541    4.51870896701637
C           0.67642119083905    6.42640132405095    3.88194797892963
C           2.01632570898928    6.73897341334592    4.19418391862178
N           3.10223382623383    7.04214705593786    4.40876508267720
C           0.21088504056655    7.21512307980468    2.80838093280033
N          -0.09191181002494    7.87676264496898    1.92004577788185
C           0.44710195244660    4.55899159390602    5.55228672325381
C          -0.55088088003308    3.59477889713634    5.83481273010692
C          -0.38041273061154    2.60127597854131    6.76828531261355
C           0.83472878526406    2.55863533219420    7.45914395970885
C           1.82557739092039    3.52965822818227    7.17440241367881
C           1.65302010038565    4.53254602982383    6.22854752317125
S           3.24476885904088    3.29829021712222    8.14878582263945
C           2.50031281342608    1.91910271494681    8.91351089923171
C           1.25259676429775    1.64408930416376    8.46378034422164
Br          3.43854416201422    0.97595104739839   10.23442658959377
C          -1.73962726502063    3.84861601363364    4.99946346483032
O          -2.77164472092569    3.21430003760155    5.01616760298980
C          -1.42326181389269    5.07549812068804    4.22371667662609
C          -2.31012717088320    5.84871464904355    3.52911169888356
C          -3.62519160629250    5.53673432066277    3.12265637373626
C          -4.26123150543058    4.31737510388735    2.93082639917342
C          -5.57299461606893    4.47554211920657    2.50384026734834
C          -5.95468091811083    5.82831620378725    2.36901328884794
S          -4.68199960213035    6.89640801488147    2.72345225043420
C          -7.32101645147541    5.87926680352415    1.99588456680493
C          -7.79963639402956    4.55706325541548    1.88567453504633
C          -6.71483090765101    3.63484540794873    2.17888487653333
C          -6.75809738544499    2.27281840738667    2.14125191286175
C          -5.62838796657187    1.46489675402223    2.39691197357624
N          -4.71995752679594    0.78954901807116    2.57625986217572
C          -7.93913419198206    1.57059186591472    1.81645166875748
N          -8.89512196539429    0.99371814090418    1.55642566086670
C          -9.15002050762088    4.50142369629416    1.54949679810721
C          -9.68667923049324    5.76796394548134    1.41238388562296
S          -8.52636256310099    7.04728694333346    1.68438053955816
C         -11.03618795545247    6.12588848195094    1.12322077745510
N         -11.32516024990949    7.41806023828037    1.07025966321832
N         -12.52099212376609    7.86739385761909    0.86188548740661
C         -13.57059637033530    7.07792599585359    0.68584345210103
C         -13.39351485047121    5.66479250650310    0.69421469151405
C         -12.07051021118067    5.16796969594770    0.92028401682115
N         -12.02732225011088    3.83895590213919    0.90819010311295
S         -13.50732506315053    3.27407164770885    0.63703033715870
N         -14.27355766567671    4.68247454172477    0.52396548231820
C         -14.83945934731348    7.70491205581227    0.51255856621935
C         -16.07444276330156    7.10422536131377    0.35387332949544
C         -17.08822496888524    8.05280223515324    0.24433357659850
C         -16.60532130459353    9.37557630579630    0.31839355674539
S         -14.91317391571976    9.45162259906407    0.52521539824176
C         -17.70995470924663   10.25684347069672    0.21046087346719
C         -18.88699012964142    9.49589109403685    0.06417834263641
C         -18.53231107871022    8.08514747515687    0.08142595543002
C         -19.37457888699143    7.01876868105298   -0.02951153079309
C         -18.91017696596754    5.68617835177285    0.00751239201419
N         -18.54136892047784    4.60115220091529    0.03488897887346
C         -20.76760089359608    7.17493384231958   -0.19534931968614
N         -21.89789904687539    7.29841615356421   -0.34101463637433
C         -20.02580774787183   10.28394212678085   -0.05654047285355
C         -19.74049006735577   11.63882323276054    0.03371584666788
S         -18.01188628439741   11.93008245922463    0.21583905422205
C         -20.68391585875908   12.68316246856990   -0.10805469691639
C         -20.58368917392325   14.00109241906211    0.20990413106998
C         -19.65650388109525   14.74825317207138    1.03430438656735
C         -19.04838460025406   14.29579891999240    2.17607365365360
C         -18.24056514090431   15.10041947303905    3.00472292611946
N         -17.56413272005144   15.71507359133720    3.69853718036522
C         -19.25300980636969   13.00079672734697    2.69490416121248
N         -19.43240560421749   11.96748582810150    3.16174202461371
C         -19.73444229903364   16.14284505680222    0.61588363228412
C         -20.85320813823352   16.29599700022312   -0.24278397873468
C         -21.48864634305823   14.98090814915880   -0.45734448775923
O         -22.49155759441248   14.72955216747298   -1.08208179252277
C         -21.21766687924089   17.51313190383000   -0.76559276758926
C         -20.43535826125455   18.62521749455786   -0.43660250346250
C         -19.31175024822126   18.45776218165132    0.40936744035270
C         -18.94832100657942   17.22921366003255    0.94740246922015
S         -18.48141782723170   19.95982593399095    0.67354936704266
C         -19.63997182373103   20.78339872577944   -0.33685528911617
C         -20.59956280539681   19.97590391473727   -0.84836735792396
Br        -19.47112900877632   22.62850319042390   -0.62261554828670
H          -1.16001647574203    1.88024500171895    6.95763789558785
H           2.43482024048710    5.25215593876475    6.05184100430203
H           0.64991173793893    0.83103209537305    8.82519737582488
H          -1.99936575387579    6.85733011122730    3.28165238481911
H          -3.77884319213044    3.37291935717972    3.09748835222429
H          -9.73508688710071    3.60977386090759    1.41425498177311
H         -16.19711054709036    6.03653779995932    0.32754337639574
H         -21.02754665660327    9.91228939785523   -0.17596123334030
H         -21.59964226576678   12.40601938876504   -0.62314948974707
H         -22.07927400587784   17.60564982319049   -1.40785324244291
H         -18.08209586858018   17.14456647860506    1.58284048799915
H         -21.39105793289138   20.31686596262239   -1.49035804459389
