101
 SCF done       -210.550614571134          0.000830361984
C         -10.21763644500974   -0.86431648777199    0.10476166932926
C         -10.76499155740417   -1.67529723474942    1.06448705232303
C         -11.46520720470733   -2.86769390622734    0.78445844135183
N         -12.04546783526480   -3.84365281934495    0.61629157167426
C         -10.67892593748682   -1.45986793564414    2.45685914256168
N         -10.63856957828627   -1.37547172768654    3.60107749664099
C         -10.21696482185793   -1.12389523257521   -1.32922870604850
C          -9.44068018789798   -0.12866240473426   -1.97135751414827
C          -9.24472885155516   -0.10360601506818   -3.33088508208451
C          -9.84006859844876   -1.11211068377500   -4.09514296852758
C         -10.61864715462325   -2.10068994495225   -3.44575492167029
C         -10.81931640709539   -2.12383430197985   -2.07133942267061
S         -11.26994777845375   -3.24606469127127   -4.57807155663730
C         -10.49625283610054   -2.39601514251347   -5.88943083274859
C          -9.78703019810486   -1.30911248540534   -5.50190664540866
Br        -10.69779195114623   -3.02234427874907   -7.64510366452260
C          -8.93148168990527    0.82990058873354   -0.97066219284080
O          -8.29949442615726    1.83361872902959   -1.20268935828165
C          -9.45811252725827    0.35082983870189    0.33940296241565
C          -9.39032804023446    1.04529948224983    1.50880700428751
C          -8.53103058717499    2.13849303507120    1.78974561826543
C          -7.22757376499687    2.42048951682255    1.31304627479980
C          -6.82083443377241    3.61510447402875    1.94426920205040
C          -7.89798722771349    3.95364381729049    2.83102415069649
N          -8.89118494992340    3.06191666661316    2.71842245433532
O          -7.88049371771535    4.93472578739165    3.68150715655404
C          -9.04567267984666    5.18287448990392    4.45320273098254
C          -5.51488647361150    3.88261796631991    1.46877329951755
N          -5.09492514933129    2.85890877067197    0.65981580928933
C          -6.09276365932720    1.98962370098462    0.55144167332428
O          -6.02089801762622    0.87731604656277   -0.13915692648626
C          -4.80339240743013    0.65579966989336   -0.83317959551835
C          -4.66446735882460    4.98012698978079    1.64896350080124
C          -4.94961533273481    6.27948833126121    2.11811903814190
C          -3.80168632434000    7.14867048660586    2.08205407122997
N          -3.90072170438104    8.42890971939151    2.43355501886898
C          -5.09115390638701    8.85921110930087    2.80473000771890
C          -5.21774583738563   10.29052551183763    3.18109820038501
O          -4.34659392756695   11.11178893191880    2.98715387310970
C          -6.50536144033738   10.66352099352682    3.79367904642950
C          -7.56997945267911    9.85694576245431    3.81276252719308
C          -7.56608121187702    8.50472732035032    3.22926372770037
O          -8.58974097778274    7.86743220752456    3.08729146557484
C          -6.22988421808655    7.99937004528315    2.82755877474091
N          -6.14509173594283    6.72864960775822    2.48620605541014
C          -2.65350294850517    6.49401000797989    1.59041251275588
S          -3.01802511950664    4.86009442948623    1.13880456223397
C          -1.33821899438599    6.91621819781250    1.36380076697766
C          -0.62096853186041    8.10001053637077    1.64782038279825
C           0.66783185449876    7.91363408233374    1.09875291354255
C           0.66184691108529    6.59516472300293    0.53941575471790
N          -0.52168014344298    6.02416595982545    0.70686225241542
O           1.68325208912243    6.02480186432939   -0.05650149810455
C           1.47705164082383    4.69595076025319   -0.50983715538122
C           1.40271624602965    9.08972786567707    1.36468660524099
N           0.61882246663309    9.97134992074845    2.04777282253569
C          -0.57547352225094    9.40544825159563    2.24708363306280
O          -1.53904705500103    9.95988383617274    2.91617928780810
C          -1.31515231500754   11.25520481327598    3.44777574620488
C           2.71978931123138    9.37027048367687    0.93519621694430
C           3.44361730613496   10.49930998449438    1.16808492012600
C           3.18645958562592   11.63055886286753    2.03435535311987
C           2.54630672718260   11.59184338711698    3.24125244816742
C           2.31340586652814   12.72687088766039    4.04234456688515
N           2.06744335281142   13.62485121036315    4.71411741222342
C           2.14933010981175   10.39773869046264    3.88859268418303
N           1.95087232875172    9.49045415878755    4.56457042130709
C           3.92657205882194   12.76346457783458    1.48899296049748
C           4.79923329826706   12.29209375019197    0.47415067986719
C           4.59829292342875   10.84101722198080    0.28926785261436
O           5.19515366289580   10.09502732608223   -0.45097595676144
C           5.65885451261992   13.12374087656336   -0.20273962293883
C           5.64898213042134   14.48252788736309    0.12801955464469
C           4.76664730063470   14.94402592089776    1.13477998667721
C           3.90378324971436   14.10286681480837    1.82697426182714
S           4.91276494999918   16.65795047930631    1.37513057034527
C           6.14132034520630   16.73126085183259    0.13908893806370
C           6.42857480713656   15.53497865844453   -0.42603648662109
Br          6.92519586453207   18.38001777989211   -0.28884370231058
H          -8.64998536550947    0.67064455995562   -3.78964059428011
H         -11.42703095528107   -2.89327961104167   -1.62542962277810
H          -9.24979199276293   -0.67070039172687   -6.17921941101554
H         -10.05958020410210    0.79087247310367    2.32184626230874
H          -8.74587138446287    5.23464364315453    5.50035597413779
H          -9.78260065396329    4.39629059496328    4.29739629256218
H          -9.43788699868135    6.15220101154819    4.13542280854204
H          -4.89409986868475   -0.32152064759828   -1.30235334719295
H          -3.96116584370950    0.67685828139970   -0.13909676671237
H          -4.65498418712422    1.43169047138676   -1.58613655924005
H          -6.55081020006532   11.66892153674129    4.19007206426676
H          -8.51645593751556   10.17906002044652    4.22554571664635
H           0.64876735457013    4.66178002978571   -1.21983532775993
H           1.24145429828765    4.04172911945673    0.33157203529885
H           2.40633363472411    4.39083233474141   -0.98534037420032
H          -0.73539628927936   11.86268224412284    2.75162323938555
H          -0.77381239776241   11.17897310211579    4.39398846095547
H          -2.30404025813066   11.68076849003606    3.60613652410908
H           3.15941119690825    8.64464361564463    0.25985616971337
H           6.31747790735912   12.73883176107904   -0.96538104843990
H           3.24564135930378   14.49714634452357    2.58363387738252
H           7.15882503998803   15.39790165189935   -1.20241764935831
