99
 SCF done       -213.655118169837          0.000945966516
C           0.50140883746956    3.29276056393966    3.82147562655826
C           1.23603351251678    2.44933752861999    3.02859980179190
C           2.55233262601819    2.03545114985045    3.32359706936490
N           3.62258434840100    1.66290983224324    3.50713349536341
C           0.81179968714113    1.88538760985371    1.80677332908037
N           0.54885340989066    1.39012450258051    0.80466060747237
C           0.97021698200665    3.89721642466845    5.06534936362394
C          -0.04180673535174    4.75404531533393    5.56434846934171
C           0.09720225045654    5.47490635609589    6.72532576272759
C           1.29593364773779    5.34252188711919    7.43356421561274
C           2.30154447018319    4.48236651537534    6.93112370268585
C           2.15959404980916    3.75506225734729    5.75516439285533
S           3.69934410375180    4.46370845606637    7.96206389176386
C           2.92578858813814    5.59637221982088    9.03874014030346
C           1.68390439221469    5.97045919141042    8.64833581853238
Br          3.82936942520673    6.17775361388794   10.57546875500661
C          -1.19616600599948    4.71570373967912    4.65316740338041
O          -2.23296885075001    5.34570246481387    4.77816671177581
C          -0.84841640392372    3.77260137845102    3.58533925724496
C          -1.67919703458057    3.37773536264772    2.56658316873684
C          -2.99150722590559    3.76735673480617    2.26201806152479
C          -3.70130515605882    3.19665761448947    1.19509718712562
C          -4.97712440048308    3.70775831128023    1.07430445402869
C          -5.25331744399543    4.69726595576125    2.05270426064957
S          -3.95273611723010    4.97580956671410    3.11527235439136
C          -6.57993190287096    5.14510589619428    1.87084420589535
C          -7.14744158794953    4.44414180451534    0.78343600763050
C          -6.15822756141568    3.52611337918842    0.24378090567416
C          -6.31174696888757    2.67256232257127   -0.80864382571568
C          -5.27907395845046    1.81082158506983   -1.23590985654222
N          -4.44652710926579    1.10500039416578   -1.58619977260729
C          -7.51575245218710    2.59128317459642   -1.54020919756771
N          -8.49133389120865    2.51651816402597   -2.13800533429485
C          -8.47009593394314    4.79315204882798    0.55232864870611
C          -8.91598835965977    5.75647846296193    1.45145705146104
S          -7.67526111201267    6.25030926976431    2.58812849809044
C         -10.22240334859314    6.29894126875069    1.53980603952634
C         -10.53051768643869    7.28396739305286    2.51080210771593
C         -11.84631762795039    7.81589975218506    2.70574386584605
N         -12.03568997724210    8.75522223994720    3.65231571500835
C         -11.02590222905625    9.14792765732333    4.37699825199680
C          -9.73532375056257    8.61166427397770    4.19717994347600
N          -9.51490340884125    7.71042336062890    3.28229977768906
C         -12.94484199204255    7.35500158963541    1.93028377573417
C         -12.62906832425445    6.40697744071365    0.93394459926262
C         -11.29968832438868    5.88703389924544    0.72771462451956
N         -11.27335644108667    4.99849189076791   -0.26815311247576
S         -12.74314673971892    4.83322269147737   -0.87864555214065
N         -13.50495368632983    5.87083049044545    0.08105198201772
C         -14.29080560527041    7.75541783913500    2.14215576842949
C         -14.77485300991688    8.65877139726056    3.08227468832876
C         -16.15680656017026    8.75371749277248    3.05036522044395
C         -16.74602920077276    7.91701378770256    2.07652201456866
S         -15.58184296698302    7.02897195108018    1.19415262406631
C         -18.15041250316059    8.05010114955332    2.17028448296962
C         -18.44834218950988    8.97403315794281    3.19764501339395
C         -17.20583120063694    9.44394290098325    3.78138908660046
C         -17.06591388005856   10.31010523841442    4.82611696623787
C         -15.80457021117935   10.68763762636888    5.33232516948147
N         -14.78256898699637   11.00507213599447    5.74409918277147
C         -18.18996848872586   10.87630600751116    5.46351606290442
N         -19.11529527091302   11.32559990662831    5.97062969805938
C         -19.80909844948278    9.11945643158184    3.41931698084935
C         -20.56800855768623    8.31351895254743    2.58103887419041
S         -19.55621983067110    7.39864293929469    1.46572924746330
C         -21.97047821904438    8.17627210167503    2.52194469853962
C         -22.89661662219504    8.49380116190596    3.47057954170337
C         -22.81049255597207    8.80246173745901    4.88275352513967
C         -21.87545141271167    8.34370712259241    5.77515994549390
C         -21.93411228716710    8.57666756637531    7.16547552070117
N         -21.93403638193896    8.73176828307005    8.30239677594407
C         -20.80216722620430    7.49753046278068    5.43668275849383
N         -19.93015329663881    6.78165474743072    5.22247005210982
C         -24.06248128036998    9.45175691746897    5.25967019867139
C         -24.98332195545581    9.32428360818036    4.18900191856108
C         -24.31921548211984    8.65299776313132    3.05570007805079
O         -24.79917508771838    8.33301553337680    1.99283129785235
C         -26.27358111053872    9.78973927088420    4.26805849978609
C         -26.66836695053852   10.42034583197854    5.45282992331106
C         -25.73297833488224   10.56395032621736    6.50621998507208
C         -24.43007327055984   10.08695060739844    6.43002422341317
S         -26.42678118288473   11.38454562549137    7.87023473271285
C         -27.94604111661124   11.51424537297030    7.02436353828018
C         -27.93503445175839   10.97586586916751    5.78159866596145
Br        -29.40203312587938   12.34830815110424    7.86079711862203
H          -0.69351833472315    6.11925100489624    7.07626471674655
H           2.95582574482563    3.11303388716384    5.41822722673412
H           1.06598303718741    6.66036515547050    9.19343715771388
H          -1.29154635828599    2.63419002307771    1.88056726431385
H          -3.27081963509774    2.44009949968823    0.56274325091575
H          -9.10888436929814    4.38735575878895   -0.21058773226766
H         -11.23207680127880    9.90678895547972    5.11855262028058
H          -8.89036899555366    8.92379692535757    4.79367000924999
H         -14.11873093576974    9.19165252800871    3.74473283254892
H         -20.24511782148939    9.80055502628390    4.12732777884096
H         -22.38350032477867    7.82204443265119    1.58230008487867
H         -26.95839211063213    9.66960007909550    3.44340695227824
H         -23.74892720704663   10.22624323416119    7.25305897730359
H         -28.78435820593466   10.96892151164959    5.12319813169571
