92
 SCF done       -195.965785055675          0.000908496854
C           0.81115845425170    4.72793920565002    2.79010303208876
C           1.61278246693629    4.03551411294709    1.92109670824583
C           3.00443732216035    3.87215511460936    2.09066849986533
N           4.13570111866632    3.69942389018719    2.17795220303301
C           1.18658985956953    3.41517136272961    0.72722982221627
N           0.92108910612179    2.90158932410473   -0.26472308601327
C           1.26794574567223    5.42076627164336    3.99046630601805
C           0.17009974989396    6.10857437279751    4.56558624617632
C           0.27995915567558    6.86063017748082    5.71008788213953
C           1.53522249399095    6.93398210905465    6.32249367521950
C           2.62636542573332    6.24119795706677    5.74441841333089
C           2.51463616387201    5.48447194740880    4.58412838950432
S           4.08277260741220    6.46207685397707    6.66420633384496
C           3.21937442170312    7.46623084023420    7.79852000224990
C           1.90743159734555    7.63099504284286    7.50391732621409
Br          4.13086017600247    8.20411515658808    9.26134831662207
C          -1.03031572134509    5.86319611444680    3.75196965064227
O          -2.14380185099345    6.31995954994884    3.94865788966263
C          -0.61961258029023    4.95432308480381    2.67580488677832
C          -1.46098016517969    4.35986219362057    1.77260546716191
C          -2.84557533783739    4.50717782264146    1.58829210148579
C          -3.54624963204822    3.74381301523580    0.64657504128662
C          -4.89332510876052    4.04903696555350    0.61462470176427
C          -5.23064065257398    5.07373388701104    1.53006411145194
S          -3.90435197580047    5.62904480710578    2.44159919596228
C          -6.62260863489112    5.31684197668950    1.41530505953160
C          -7.16319945631344    4.45435455519597    0.44331661226257
C          -6.09437772947447    3.62740471496560   -0.09185435545014
C          -6.19743499062856    2.65921110854014   -1.04580763789074
C          -5.08294117417535    1.90839640216608   -1.47808948959421
N          -4.18210266735784    1.29181657074151   -1.82770202476172
C          -7.42550834525015    2.33548511739243   -1.66184675770250
N          -8.41882778750544    2.06651488046458   -2.16676272341052
C          -8.53573494026485    4.62872879854725    0.26907906135319
C          -9.03497341360250    5.61855215706331    1.09270832437426
S          -7.80048455237378    6.34360335594736    2.10119735104788
C         -10.40205947848086    6.05075923274623    1.15282473019809
C         -10.83642759454441    7.13257682900979    1.93771225251710
N         -12.08936374574068    7.51607820709992    1.96950054011067
C         -12.97258447615006    6.83658825412278    1.22146156441024
C         -12.53846977745411    5.75346877177425    0.43800103356076
N         -11.28540007942509    5.37225945349662    0.40376665903640
C         -14.33749892905283    7.27743211259542    1.26266587004635
C         -14.81280328609601    8.39416087917719    1.92163851842659
C         -16.18880101890456    8.54803476556665    1.75402203197809
C         -16.75772574661090    7.53149168311136    0.96483521305879
S         -15.60126317017129    6.40046614422271    0.42570033141912
C         -18.15086892900152    7.77125866059967    0.84640724542748
C         -18.45890743003620    8.94534672988254    1.56093873261040
C         -17.23767049831239    9.47640165803052    2.14427139335396
C         -17.11415086945522   10.62657937563854    2.86596978526945
C         -15.87791566119235   11.07083222454576    3.38151418441859
N         -14.87754616480131   11.43050535400136    3.80977032566963
C         -18.23184931728781   11.44555060391839    3.13430558592119
N         -19.15143254970166   12.09716750294673    3.34537320783203
C         -19.80138152209955    9.29137673379896    1.47831814084643
C         -20.52705119302463    8.39594200553949    0.70626921079404
S         -19.51906597475777    7.08576115602742    0.10480354022263
C         -21.90838546132643    8.40135153134271    0.40791581961754
C         -22.78693452730728    9.43905493530550    0.46558931257469
C         -22.62728875271524   10.87557672394137    0.56886076842705
C         -21.58341785769913   11.62459353700073    0.09103806235081
C         -21.56079259535147   13.03561246622951    0.09788272418506
N         -21.49724659213190   14.18093027434747    0.07341720908157
C         -20.45447693638380   11.08569505665490   -0.55568517084729
N         -19.52920374320854   10.69768917165978   -1.11415672322012
C         -23.90567839466971   11.41981273656590    1.01463616765673
C         -24.88577409116581   10.39671026836458    0.95089006982633
C         -24.24702230735253    9.13799599673625    0.52420627275714
O         -24.76989906608546    8.06952365317562    0.30967250421196
C         -26.20407444038689   10.61893186220936    1.26833072702691
C         -26.56844965176916   11.90584632760038    1.67814321401031
C         -25.57757617310661   12.91489797062445    1.75710839379456
C         -24.24567662185513   12.69309465880078    1.42922748652394
S         -26.24373147640933   14.42421143616312    2.29827490378673
C         -27.82360883138787   13.69388456637041    2.40376319097481
C         -27.85245326760255   12.38522325481487    2.05527994591700
Br        -29.28422839701946   14.72634234839277    2.96507843007479
H          -0.57532177946499    7.37331122788006    6.12144819699735
H           3.37573579450090    4.97425535439186    4.18656301038468
H           1.22922924085311    8.21889536785090    8.09493725369732
H          -1.02077848945235    3.64262124156001    1.09016164537386
H          -3.06049547990838    3.00752266777766    0.03086830458803
H          -9.16564218745123    4.08598994388673   -0.41129964498069
H         -10.14649759342511    7.69866773995403    2.55011691642549
H         -13.22777556147963    5.18888853040303   -0.17660576040993
H         -14.16396622665735    9.04183074349556    2.48195777872069
H         -20.25123522498137   10.12652263220529    1.98354406149954
H         -22.35103668650236    7.44191371755854    0.15735662471236
H         -26.93206675672401    9.82575363843962    1.20229099436321
H         -23.52290930190023   13.48768375243904    1.51332729426260
H         -28.74160229862381   11.78170551056582    2.06321338185602
