95
 SCF done       -203.444286081681          0.000622691868
C          -3.04960283348685   -2.34918145376985   -0.91483584884695
C          -1.72675092903588   -2.07917486510443   -0.67781180664736
C          -0.68251177884461   -3.00589197546104   -0.88384259566507
N           0.21076398844094   -3.71194262278131   -1.02925336679491
C          -1.20389101485792   -0.85854971653442   -0.20081935236717
N          -0.69685083911432    0.09786264122626    0.18270948593159
C          -3.57101320259873   -3.62044713555033   -1.40972408047331
C          -4.97919892403726   -3.51952945085205   -1.52776160750554
C          -5.76715264909299   -4.55364952087094   -1.97104283436600
C          -5.13369027702381   -5.75130694500842   -2.31737758833434
C          -3.72641273736018   -5.84585095937936   -2.19745798805574
C          -2.93112277546736   -4.79821185323749   -1.74795947240181
S          -3.14880065901411   -7.41174172679340   -2.67863884774308
C          -4.78209934834090   -7.91132685541747   -3.02983295542586
C          -5.71418948653109   -6.95606817170849   -2.79887878595646
Br         -5.10338741245253   -9.64507186419396   -3.66764988803188
C          -5.40093595488758   -2.17404412854692   -1.11035960184930
O          -6.54608821365980   -1.75399288199578   -1.08899608032632
C          -4.18018299720439   -1.45562368283504   -0.73257197121013
C          -4.12356014650926   -0.15865011215414   -0.28775737839185
C          -5.14799446940225    0.77942924817350   -0.09151158412297
C          -4.88244011106927    2.07840608175367    0.36411452950670
C          -6.02589859562073    2.84419905428094    0.47766653064060
C          -7.18865443751189    2.12526807778172    0.10707448865583
S          -6.87118169370564    0.52524599732898   -0.37438007482081
C          -8.30245332972762    2.98675550752923    0.24584818375105
C          -7.85391354093488    4.24222983146336    0.69950321342737
C          -6.40999118840468    4.19477818664332    0.86248850541422
C          -5.59424497892290    5.20357355169635    1.28276131490297
C          -4.19725090734210    5.04521154394371    1.40365413664253
N          -3.06173094616155    4.92462429658396    1.50363184880598
C          -6.10035361327653    6.47571036995638    1.62318209239593
N          -6.51754657978403    7.50805001901712    1.89729046720340
C          -8.89108675973206    5.15775008451939    0.85484026522676
C         -10.12253149308557    4.61186873840557    0.52390646278706
S          -9.99361960610257    2.93944119419931    0.01707997615944
C         -11.39991361353988    5.25590252638885    0.54775740510061
C         -11.58150137627755    6.58372878014118    0.91666698765452
C         -12.82696309758006    7.20424236337777    0.92012181735096
C         -13.99773718433744    6.54954138411153    0.55573775230875
C         -13.86249139038581    5.18320675320343    0.18012087536523
C         -12.57378829196875    4.54151968096854    0.17518350062785
N         -12.60285710691056    3.27038659632674   -0.19825253681855
Se        -14.24711755891082    2.80214418583153   -0.56900402055415
N         -14.86225290772953    4.39584095703701   -0.18972985082132
C         -15.28199737675927    7.17945008788658    0.54093864994765
C         -15.58403496833625    8.49747656785175    0.84922331316872
C         -16.94241957290178    8.76902314699444    0.71433788939759
C         -17.68218721015981    7.64395001919050    0.30254373204370
S         -16.70299982507184    6.26286382339495    0.08193313184031
C         -19.04416927330430    8.01753177993502    0.19528810890396
C         -19.16310047155308    9.38172494970043    0.53386712084241
C         -17.84847034548077    9.89386064921801    0.88119173408867
C         -17.54899104378127   11.15585477228440    1.30361021490882
C         -16.23218910050759   11.54406313738872    1.62670714836158
N         -15.15754472006417   11.85348813380317    1.87964578060974
C         -18.54932114209636   12.14173180723876    1.43743533364578
N         -19.37411072334253   12.93269939070849    1.53290364267757
C         -20.47152020095843    9.84078179014073    0.48212663276850
C         -21.36424554929006    8.84269368758762    0.11463022908580
S         -20.54103910275957    7.31802577327567   -0.20365198504674
C         -22.76019101241346    8.91704371727456   -0.07182563210994
C         -23.63792977089252    9.86649890246365    0.35790917108580
C         -23.55684118901295   10.93772941129124    1.32814187795153
C         -22.79872064417047   10.95982188468930    2.47058892319016
C         -22.87750953018373   11.97647253254540    3.44570396902515
N         -22.91042510268428   12.77300522054924    4.27079265217026
C         -21.92923848747103    9.92214363292941    2.85730689600473
N         -21.23030158077870    9.08772111018130    3.22288319722537
C         -24.63909590925621   11.87111777299910    1.03027198264579
C         -25.50623023367555   11.27595311034035    0.07921018833986
C         -24.96378175868990    9.96291370712481   -0.31671884611936
O         -25.45227773719559    9.14774116083858   -1.06444681992506
C         -26.64535664453413   11.89865180795726   -0.37029310020915
C         -26.93333809075674   13.17238234582950    0.13127565291626
C         -26.04955761450259   13.76582442779895    1.06513882052386
C         -24.90233346415591   13.13247644401260    1.52789297820368
S         -26.58828241039516   15.34707872372083    1.53918120252472
C         -27.97734765138413   15.19097796354663    0.49667603269512
C         -28.03547374268388   14.01642510233476   -0.17515395679016
Br        -29.21788919811746   16.59286402012284    0.39191255158559
H          -6.83723424770027   -4.44174715878190   -2.04842058759041
H          -1.86399954764842   -4.92359298689550   -1.67574961474899
H          -6.76759866018409   -7.09378816466544   -2.96104521599631
H          -3.14316206656552    0.23320844777454   -0.04520075005148
H          -3.88467048364291    2.41205930300263    0.58929273339370
H          -8.76039454473050    6.16982764570127    1.19001917997338
H         -10.72538755297180    7.16883992716487    1.21203833646661
H         -12.87460268465403    8.23904499433581    1.21912103284143
H         -14.85032794302767    9.22065771747451    1.15345594654190
H         -20.76962737097275   10.85867522634661    0.65501689562447
H         -23.19910838929966    8.14899216971055   -0.70195778204733
H         -27.29375848429488   11.41971585360492   -1.08699612555220
H         -24.25253595734814   13.62504978664269    2.23220662147483
H         -28.82184669855014   13.75447299327078   -0.85918881016651
