91
 SCF done       -196.250552806918          0.000845473490
C          -3.09009258966135   -1.77343999880113   -1.02178402434728
C          -1.76654139625391   -1.72537760051331   -0.67248038643522
C          -0.83110954836736   -2.73678718613469   -0.98064104363817
N          -0.02295938002114   -3.52130552650102   -1.20054430080066
C          -1.14378490756531   -0.69020398597143    0.05784556677563
N          -0.56433843444040    0.10108013358305    0.65509009751230
C          -3.73570365559481   -2.87259934106331   -1.73192872637551
C          -5.12295780073557   -2.59936288409703   -1.83162205638999
C          -6.00713579290601   -3.45200219497069   -2.44731271209494
C          -5.49738194264381   -4.63266441636384   -2.99680336188447
C          -4.10984623443504   -4.89728872358092   -2.89675938240068
C          -3.21733277207719   -4.03540340563199   -2.27081865381624
S          -3.69161685214752   -6.40660390625801   -3.64685593744324
C          -5.36190667695978   -6.66006777558605   -4.07855605921481
C          -6.19237529852308   -5.66585054691446   -3.68194637434833
Br         -5.85163671605529   -8.21018522783536   -5.01252811677197
C          -5.40548672506987   -1.30509673970577   -1.19367165209770
O          -6.49807140320747   -0.77478805183800   -1.08553561891827
C          -4.11382519258040   -0.78258806293780   -0.73100488958795
C          -3.90592624147061    0.45480287782062   -0.18308124400925
C          -4.81941772558057    1.47824426725590    0.12449095425551
C          -4.39400882309093    2.71560342339740    0.62203162667880
C          -5.44649967650306    3.58021440056927    0.85789011389935
C          -6.69684095254898    2.99408810071530    0.55544661970148
S          -6.57215040386778    1.40392502662095   -0.03848705692951
C          -7.70713042901774    3.95505782665772    0.82244691553656
C          -7.09853789088545    5.14058546316352    1.28200561308440
C          -5.65988813305083    4.94245916822356    1.32724983114704
C          -4.71229410983130    5.83929561075032    1.72233602404851
C          -3.33457647929908    5.53194392790800    1.71243072552571
N          -2.21396426916256    5.29191204695703    1.70105824547497
C          -5.04168946583450    7.13899717360177    2.16437510341109
N          -5.29880609495976    8.19599815290384    2.52517926083502
C          -8.02365776597804    6.15032913416972    1.54798187577547
C          -9.31169268283408    5.72391182482817    1.30154361071575
S          -9.40580521147883    4.07520887328509    0.73988795991924
C         -10.52517600773039    6.47496947476170    1.44551148456311
N         -11.67094258566427    5.82878327268711    1.24481024644367
C         -12.77322163212692    6.56265489392677    1.36956587468063
N         -12.78137471764373    7.87021400833537    1.64849957265231
C         -11.59064054961778    8.40310129821251    1.83841756392782
N         -10.43679067908766    7.77039073392686    1.76484930174262
C         -14.03169553772549    5.89507027368373    1.20004043828664
C         -15.29186001573987    6.45449305567823    1.22803229081963
C         -16.27881189890214    5.48531559189243    1.04890385035527
C         -15.74315322007906    4.19153120588560    0.89419043318867
S         -14.03973157678439    4.16914049837462    0.95251323641711
C         -16.81979442140069    3.27795060807687    0.74833266694900
C         -18.02990039309647    3.99344791270300    0.79342042052264
C         -17.72916478614304    5.40506575795291    0.98154795992587
C         -18.62055854939125    6.43214009540630    1.07006455649588
C         -18.21418238589196    7.77197584732834    1.25330714287997
N         -17.89728971827834    8.86418411032615    1.39545144607740
C         -20.01400825188440    6.22713345956780    0.97123279331521
N         -21.14515608901702    6.06526611574975    0.88171053894364
C         -19.14635583653310    3.17409278667594    0.65160899015133
C         -18.80391086673663    1.83595248338185    0.54731855624368
S         -17.05778783807043    1.60397153682367    0.56166970716509
C         -19.71063721698208    0.76248597113979    0.36005675106092
C         -19.54092642059599   -0.56295035449545    0.60151458048711
C         -18.55500713958173   -1.30271806620972    1.36439149028642
C         -17.92129843981663   -0.86683911575035    2.49826044741375
C         -17.04611387645470   -1.66382668883450    3.26373423018791
N         -16.31197822221192   -2.26915645964080    3.90515453154284
C         -18.15041125977644    0.40021315948069    3.07360328755246
N         -18.34438260188956    1.40744246661329    3.58874251402865
C         -18.59248788919079   -2.68215931246278    0.89508673257133
C         -19.72729591984108   -2.84724673873952    0.05978281022318
C         -20.42214967472283   -1.55285346628983   -0.08389771425286
O         -21.45064280118835   -1.31871490133710   -0.67197650116593
C         -20.05874960736027   -4.05758885397632   -0.49982919665678
C         -19.22786089905642   -5.15046983786898   -0.23104875107516
C         -18.09099039355631   -4.97133138706293    0.59486365122315
C         -17.75919413931056   -3.75003881259158    1.16790330113346
S         -17.20104651399453   -6.45032219313071    0.78665107623875
C         -18.35277524525945   -7.28020745026089   -0.22636250086870
C         -19.35249881915216   -6.49089512074365   -0.68739064747211
Br        -18.12302353890360   -9.10640068154037   -0.58245790523930
H          -7.05791113307864   -3.21502609183806   -2.50435863148658
H          -2.17019251028789   -4.28269124394405   -2.22393491521303
H          -7.25127132102713   -5.66037290585058   -3.86511988791611
H          -2.88173520266527    0.72475446636193    0.04516898848185
H          -3.35515646739754    2.94012582162960    0.78841047935846
H          -7.80486815561760    7.14185987897120    1.89974784683480
H         -11.55763680135487    9.45834818065079    2.07798589273203
H         -15.44823430852356    7.50745449274427    1.37469991450118
H         -20.16746136523929    3.51012032449570    0.65800046838460
H         -20.65362119341276    1.02933763853668   -0.10903221202421
H         -20.93264566827210   -4.15947021488329   -1.12380204150568
H         -16.88150125511027   -3.65613051706296    1.78600048120813
H         -20.14574676741460   -6.83810886516863   -1.32379618933763
