115
 SCF done       -226.609250674488          0.000840452705
C          -1.88214482261346   -0.58702502373550    5.39441810821621
C          -1.52731290172772    0.08286973417974    6.53604324764401
C          -0.55289535310015   -0.37644933911153    7.44675332979443
N           0.22689460204696   -0.70263831349383    8.22338797097306
C          -2.02561729589803    1.34430047775809    6.92870740338345
N          -2.34536288142576    2.38288263666791    7.29887307207931
C          -1.24994629402757   -1.80200672022428    4.89702197916054
C          -1.74462891817301   -2.06406661645672    3.59706061278254
C          -1.32464050431527   -3.13525990436989    2.84630055369726
C          -0.37243681591444   -3.99192821326637    3.40763380735524
C           0.11073843426512   -3.72655880183228    4.71138416292030
C          -0.31238409213557   -2.64151148578542    5.46913980754015
S           1.27637541044641   -4.91249606958428    5.21445911642109
C           1.10407658032839   -5.73542168303900    3.68682043218338
C           0.21873431424935   -5.15485540261212    2.84243210815158
Br          2.10882014720449   -7.28276710994694    3.35047263620522
C          -2.73529297997419   -1.03476943327483    3.22427560910455
O          -3.32629013149175   -0.97869306441231    2.16546763003737
C          -2.86654619258664   -0.15981705007651    4.41367572889277
C          -3.84381796061628    0.76418173227434    4.67107632409785
C          -4.80888552575322    1.32234298553028    3.80905811342806
C          -4.87167390550388    1.38561318734851    2.42490593418796
C          -5.97588205480302    2.07761480559022    1.93960599411942
C          -6.19255230914163    2.29777537222107    0.50676529500107
C          -6.09813846848648    1.20941908163917   -0.35891045659298
C          -6.26123332018773    1.40568492641853   -1.72225763967107
C          -6.52112903033161    2.68552274096917   -2.21958748385730
C          -6.59830088383118    3.76730073535045   -1.35793185503878
C          -6.42595688378690    3.57034524608642    0.01370101918709
O          -6.83516967864922    5.04880430676603   -1.74211493313340
C          -6.97784298345078    5.32381439613742   -3.11556815195393
O          -6.18542236329194    0.42710364790473   -2.65987558002120
C          -5.88835100681033   -0.88507645811194   -2.23971795756914
C          -6.80796370132003    2.54005678334153    2.96864079074129
S          -6.16065338759508    2.16405030479600    4.53467341983760
C          -8.06788522391082    3.16464945514209    2.89806427241800
C          -8.78673078033894    3.61199795280859    4.01567696830590
C         -10.04932796172845    4.19323145135956    3.67407505390078
N         -10.86814977285722    4.67928785608006    4.60287445508834
C         -10.47607819375698    4.58757770797505    5.85507151784687
C         -11.38542745436215    5.14106465450144    6.88752352051078
O         -12.40651866998358    5.73626588488376    6.60564661951704
C         -10.94899295912171    4.93146259918086    8.27586721744062
C          -9.79327690004431    4.34474530372904    8.60570771769876
C          -8.82230285197256    3.82747987048609    7.62401122908859
O          -7.78481929505393    3.29683105903248    7.95519912702913
C          -9.22453473131646    3.98319714768178    6.20175314743769
N          -8.40098557969251    3.51494568222781    5.28852341581621
C         -10.32441210437033    4.15451237371332    2.30193465256497
S          -9.00155691615312    3.42789487804881    1.45038922360652
C         -11.54144619188684    4.60012911252190    1.75575565477598
C         -12.08892767236418    4.41449090312692    0.49965707331482
C         -13.39797977545992    4.89413786459518    0.38638569720422
C         -14.21877415423318    4.75448930602125   -0.81204116804483
C         -15.56418549521311    4.44189091814753   -0.70828093376110
C         -16.34576895256934    4.31161119555125   -1.85927532929499
C         -15.76569370904802    4.49632764326192   -3.10385293501911
C         -14.40589219118889    4.80099078808540   -3.20844269917868
C         -13.63045954905844    4.92728487404201   -2.06803260131289
O         -13.94770410397992    4.95180100801086   -4.48097136535683
C         -12.58458466908220    5.23956576039770   -4.67597327718334
O         -17.64894890604529    4.00238517746379   -1.65213822204566
C         -18.49418497787012    3.85798527161071   -2.76889577806412
C         -13.85350350322372    5.46943821920674    1.57656875619143
S         -12.63516527852558    5.42992160477736    2.81601420393666
C         -15.08507563812420    6.12764200827000    1.81525153513005
C         -15.63640754938417    6.38471309809804    3.03214643045084
C         -15.32086083801186    5.86873361276097    4.35322029636162
C         -14.94649789913984    4.58897500019189    4.65984148283623
C         -14.76049940381134    4.10863200377677    5.97125107453787
N         -14.59598736903245    3.65120108641827    7.01108923089904
C         -14.77354643005904    3.58712880145946    3.68169770951140
N         -14.66172158984468    2.73849598347027    2.91665442962801
C         -15.75836833268417    6.87047606375343    5.31303497459864
C         -16.57864020473783    7.81410908350874    4.64340327656158
C         -16.61770257896542    7.49184250519481    3.20088815144837
O         -17.25049766612902    8.04309032704508    2.33075185881259
C         -17.17296183533128    8.86212981354989    5.30445938891354
C         -16.92930428137420    8.98972756484213    6.67648003051304
C         -16.08301102468074    8.05651888813556    7.32373770967818
C         -15.49169432007794    6.98804653762684    6.66230029106902
S         -15.89641130233108    8.42689903305740    9.01060605521392
C         -16.95016895199881    9.80447519615745    8.82956750353506
C         -17.41554247692689    9.98312257136624    7.57090700462588
Br        -17.33249770762104   10.87958949423263   10.31797065944914
H          -1.71737945127716   -3.30647435276563    1.85624938815559
H           0.08205189421024   -2.48428296523947    6.45897676636246
H          -0.00918382273443   -5.52994644514363    1.86145371611206
H          -3.93038192454906    1.10717572422702    5.69601094147350
H          -4.12149806493282    0.96172351255656    1.78489296238686
H          -5.90298916602090    0.23381956630623    0.05404943042410
H          -6.64164258305995    2.78599510315787   -3.28515681694058
H          -6.44463719071392    4.42956991480987    0.66437739985081
H          -7.13954038540582    6.39828768035395   -3.18533216547527
H          -7.83828564134576    4.79899269951450   -3.54282697697537
H          -6.07566872044642    5.05631472228552   -3.67382784203728
H          -5.84392203618845   -1.48109416895599   -3.14970710797004
H          -6.66956134485109   -1.28227512608250   -1.58437923349570
H          -4.92369825765949   -0.93301538684051   -1.72604800328214
H         -11.63220857441057    5.29359764917639    9.03200357735868
H          -9.50504105157086    4.21580339610963    9.64027669545612
H         -11.56610555421310    3.89563490167467   -0.28413794644025
H         -16.01938878682778    4.25035368803721    0.24935946523204
H         -16.32326330053397    4.40704716791783   -4.02093159131332
H         -12.58530026566017    5.18316512255234   -2.12405984378588
H         -12.30522873980329    6.19471002733340   -4.21972485869388
H         -12.44880180922369    5.30327840375020   -5.75440129756369
H         -11.94590021207707    4.44456262937937   -4.27739715337579
H         -19.47516939390679    3.61378991224089   -2.36497573945581
H         -18.15918725264952    3.04698269555155   -3.42296450941657
H         -18.56017131886284    4.78658518352353   -3.34422501236290
H         -15.59011014377271    6.55479733511864    0.95477115115395
H         -17.80114829507113    9.56631898493041    4.78178113686779
H         -14.82827028866703    6.31012438321265    7.17281357601526
H         -18.07365923372184   10.78227343240017    7.28224543349386
