95
 SCF done       -204.256793481272          0.000349580032
C           0.85663458672139    4.01108198002299    2.97484024112731
C           1.42713233310943    2.77836683494317    2.79325279964661
C           2.79936538949258    2.50755380947626    2.98251699481946
N           3.90254628909822    2.22236701221358    3.12028492713106
C           0.75320053578239    1.60787909381962    2.38434188507548
N           0.28355593139700    0.61453106475487    2.05066430107519
C           1.57358613259801    5.21935001568550    3.37159944728235
C           0.65829461407151    6.30049151564227    3.41093424606589
C           1.02909471626058    7.57921441931537    3.74954019372651
C           2.37196270783799    7.80403465128161    4.06884803278693
C           3.28060434051145    6.71905682145083    4.02990823431074
C           2.90393196063543    5.42646078415519    3.68504511055396
S           4.88746065667062    7.21611428151731    4.46277883187263
C           4.32600598250174    8.85159141560069    4.68682828246658
C           3.00280213065050    9.01927714023397    4.45005926043608
Br          5.53752810620216   10.18233749631576    5.21296323996872
C          -0.67909044830960    5.81072641950446    3.04566884001124
O          -1.69726274576434    6.47886945666900    2.97349810296827
C          -0.53922536760555    4.37252151963909    2.79559411190249
C          -1.56174179005994    3.51670340424401    2.47597301234620
C          -2.92894536203095    3.76752122480256    2.28069792992608
C          -3.82865560507946    2.73846302613646    1.97251248867498
C          -5.12155244102234    3.19571363863621    1.80874898750749
C          -5.21757952352455    4.59646724585348    1.98939163162345
S          -3.73073454222095    5.33555992806705    2.36669657288595
C          -6.56795939903831    4.96762208817099    1.79052273309364
C          -7.32575099049501    3.82058056643822    1.48582534777031
C          -6.44105260029132    2.66610781408456    1.49364764906057
C          -6.77576063333166    1.36583648389226    1.26084316141646
C          -5.82086464498680    0.32669718744976    1.30261384189508
N          -5.05004111852192   -0.52084612147846    1.33834686209693
C          -8.09710388730660    0.96334203182799    0.96772240637595
N          -9.16575722226392    0.62241645941199    0.73270452924176
C          -8.67155950825722    4.10243707289882    1.25826329757761
C          -8.94441211973377    5.45350128904470    1.38701225133876
S          -7.51294192457231    6.38651616503785    1.80123055340671
C         -10.19956028972824    6.10671516612685    1.20022044150854
C         -10.37708791777002    7.47392559903492    1.35003757196283
C         -11.59308022929735    8.12075247627611    1.12755769383279
C         -12.74704924089736    7.46276985361732    0.72954178359188
C         -12.62104999032554    6.05251033654879    0.58629338147934
C         -11.36475999992575    5.38303607470300    0.82094903793466
N         -11.56812427889809    4.09730849177944    0.61147549318785
O         -12.84490401634732    3.96899874325623    0.27537058440195
N         -13.49604486845693    5.12449432041329    0.25224532102975
C         -13.97649603937047    8.13197474658487    0.45175535535350
C         -15.14866781056941    7.57274526989964   -0.02720400173046
C         -16.13927937008208    8.53240398328330   -0.22600503728150
C         -15.71965100641666    9.83290129029796    0.11245926792351
S         -14.10945271716429    9.87140526411138    0.66914783822861
C         -16.77724842119427   10.73770779856306   -0.14769120011782
C         -17.86897898409791   10.00613825349845   -0.65702019960686
C         -17.50321018825892    8.60096250497482   -0.72715238438075
C         -18.27329823199153    7.58459686245863   -1.20897449161279
C         -17.83087095463712    6.24481711833148   -1.25247308286419
N         -17.48469716715465    5.15298037754133   -1.28600640486784
C         -19.57374741240202    7.82534734699570   -1.70225045641173
N         -20.62780041460784    8.04048637113489   -2.09917568056380
C         -18.94582401641606   10.81292696894584   -0.99890308565415
C         -18.69266691377246   12.15597659290548   -0.75989345552257
S         -17.09814295845001   12.40624321477762   -0.06045495590708
C         -19.53911823200191   13.26624509997153   -0.97648031615367
C         -20.61610518000875   13.35916134863795   -1.80349574077981
C         -21.10658457208792   12.53836248352001   -2.89223816184799
C         -20.35891763395609   11.77072591203700   -3.74713833431223
C         -20.88722083979546   11.11273895378618   -4.87825924830309
N         -21.26307309623148   10.56433284662297   -5.81327491264483
C         -18.96035954363695   11.62751760030257   -3.66509467862333
N         -17.81866447978099   11.50446592130006   -3.66048484410916
C         -22.50463398487671   12.89722777504847   -3.10521793000974
C         -22.79699726220566   14.06375811906340   -2.35340769760444
C         -21.60594887439485   14.45112410996789   -1.57483794273923
O         -21.46004749039747   15.41636421732269   -0.86182425593397
C         -24.02904274302847   14.67113206171395   -2.38650708927861
C         -25.01972923970676   14.09369293360362   -3.18779771218306
C         -24.72263663040449   12.91693347326457   -3.91802823160038
C         -23.47471923560201   12.30649360199886   -3.89162026000273
S         -26.09428023785464   12.36608607801376   -4.82883826808666
C         -27.03447702625598   13.70785579201259   -4.23217952287882
C         -26.35860019538186   14.52608384060623   -3.39040904672596
Br        -28.81843079049540   13.90122793246602   -4.77488806751685
H           0.30641362873917    8.37981869311250    3.76843049177363
H           3.63554493370200    4.63633494202293    3.67193724725014
H           2.49172679853368    9.96028874284869    4.54056083814576
H          -1.30558160080230    2.47142635846078    2.35212285244672
H          -3.51427943853072    1.71397652887927    1.87825156934521
H          -9.43354457594109    3.38693120717140    1.00744912564170
H          -9.52868499976224    8.07445571231242    1.64442515256310
H         -11.63036920629126    9.19231051441763    1.26015055519916
H         -15.24358168744002    6.51904638630715   -0.21767655079561
H         -19.88853426147528   10.45331545660269   -1.36914320422042
H         -19.35059017293820   14.14546071948858   -0.36791524344878
H         -24.22333463028839   15.56379842642388   -1.81305200845802
H         -23.29478649831530   11.40603039661767   -4.45524075910889
H         -26.78515209800048   15.39880555012239   -2.93076747782158
