92
 SCF done       -195.973926307773          0.000879043167
C          -1.38819179088151    1.47137912191116    5.63132860722624
C          -0.40262093926513    0.90665751690325    4.86502440237250
C           0.74888998492988    0.28388098040954    5.39287092580690
N           1.70419085838987   -0.23674232570948    5.75831130863634
C          -0.37338930810229    0.86791305765328    3.45463965282111
N          -0.26937014163257    0.80007829383725    2.31303989338869
C          -1.39155109406688    1.52863174712205    7.08995346572687
C          -2.54797246940163    2.22820044653686    7.51631335661584
C          -2.83946343644953    2.45049449547735    8.84033694657041
C          -1.94595038045235    1.95452026277671    9.79492737978849
C          -0.79307035832794    1.25544871305545    9.36244949864942
C          -0.49867923081092    1.03393551807841    8.02233533417586
S           0.17404875553428    0.72728388188533   10.70479776984048
C          -0.96766781993354    1.43972957857313   11.81375608987608
C          -2.01930845159909    2.04502165760330   11.21136139653538
Br         -0.66246521102779    1.32066715896655   13.65971822946944
C          -3.32499076362453    2.63511828999130    6.33683614822835
O          -4.36971174766619    3.26484152766602    6.34276866891549
C          -2.59722334002431    2.13135102680519    5.16718118453745
C          -3.01549873082692    2.23282192546367    3.86595892024011
C          -4.16750521438713    2.82803029828896    3.32626945206715
C          -4.44641543609979    2.78085806515524    1.95452747860735
C          -5.63230484108129    3.41332739438898    1.63316976523852
C          -6.26722524418680    3.96322380373334    2.77110008202386
S          -5.41825730563600    3.69172681664592    4.22012328578224
C          -7.47303424273041    4.57384693816379    2.34313661619275
C          -7.60430115983123    4.41211056906898    0.95381379835908
C          -6.45008992055549    3.68049062023302    0.45822129328095
C          -6.19690060279148    3.31676166519167   -0.83121129353564
C          -5.03999072190812    2.59705794712870   -1.19937459012133
N          -4.10415562438698    2.01048128346360   -1.50565926588803
C          -7.08316020904881    3.63527094445355   -1.88201673580398
N          -7.80957880497168    3.89578331634375   -2.73000118978588
C          -8.78215219804169    4.97097809387579    0.45213883741171
C          -9.54074194468969    5.55804212535912    1.44425565898416
S          -8.78504203094421    5.42084837105897    3.02642419065576
C         -10.81419686330626    6.20559227655917    1.31749756323423
C         -11.58734432836776    6.16386363790975    0.14362997492172
N         -12.76765904699591    6.72639624305578    0.05986680929356
C         -13.23650517377385    7.35950411902142    1.13956034474275
N         -12.57685363509994    7.48702855212936    2.29502084850861
C         -11.39761743256685    6.92343337980716    2.37556890205799
C         -14.54956396345973    7.92579387593303    1.05004301254398
C         -15.23210810130870    8.62635301069715    2.02433349659267
C         -16.50520527887492    8.99099496971180    1.58865360365354
C         -16.77482066486410    8.55297075672814    0.27602223016283
S         -15.46609912623291    7.70800944361051   -0.41768830056876
C         -18.09734015942456    8.94122827661455   -0.06439042864578
C         -18.65589710266839    9.62754771537822    1.03146638816013
C         -17.67700284344577    9.67692160350072    2.10543944089537
C         -17.85517617430006   10.22147674169705    3.34303404871444
C         -16.84521772479717   10.21340784632324    4.32847332095882
N         -16.02585338450421   10.21811864523117    5.13020547887921
C         -19.07568343362305   10.82912308089127    3.70707888974676
N         -20.07316110254864   11.32098580391587    3.98668098208009
C         -19.97339668455987   10.01023246404859    0.81689023749675
C         -20.43651976387613    9.61637203315932   -0.43023738011488
S         -19.18884502537535    8.79445333196675   -1.35978280613972
C         -21.70845529786156    9.82127542954102   -1.01014127420750
C         -22.88726272581153   10.12358977894730   -0.40072666181936
C         -23.33684779937995   10.09711059388395    0.97670374344887
C         -22.91172888846570    9.25035322045400    1.96727251916579
C         -23.49733910685842    9.18541518377240    3.24972165995165
N         -23.94191450508340    9.09021863195115    4.30315161170735
C         -21.91216740961500    8.27307402289371    1.79682104973984
N         -21.12617306812138    7.44186620730733    1.69858024025403
C         -24.52969417525988   10.93427645470346    1.05598844693170
C         -24.95018601583011   11.25659465990240   -0.25949782116075
C         -23.99048232545219   10.69429787509915   -1.22746672983012
O         -24.04392460668929   10.72127788696211   -2.43473532562978
C         -26.07993355503180   11.99716267207904   -0.51097614010279
C         -26.81969687658952   12.45131362441192    0.58593367169523
C         -26.37782555893201   12.14289057849903    1.89581025923498
C         -25.24047416619187   11.38644270248611    2.15096393596393
S         -27.43081772081342   12.81655849398267    3.10085215644961
C         -28.44146877676858   13.48797194991839    1.84842940864098
C         -28.01201343333043   13.22537819281807    0.59094195387479
Br        -29.96603248347669   14.47246182614444    2.31854021058805
H          -3.72923385266866    2.98717269731233    9.12998316763323
H           0.39202756675329    0.49466657551895    7.74732691840404
H          -2.81453288100752    2.53502534923706   11.74278906537761
H          -2.38616276509477    1.77719202921614    3.11099159741643
H          -3.79129352067872    2.29390224600899    1.25374763677277
H          -9.06873596222682    4.95702676526381   -0.58322138104974
H         -11.24635583668356    5.65080343736756   -0.74540850727733
H         -10.87952719787523    7.04062575704665    3.32025249491838
H         -14.80199432208487    8.83869082106252    2.98576725449682
H         -20.56540984931720   10.58208323679509    1.50786467560133
H         -21.75175697192972    9.79362605122463   -2.09489967412211
H         -26.38427545258358   12.21921153873094   -1.52168666343793
H         -24.93541309700237   11.18350042827651    3.16419188143779
H         -28.51411923194567   13.56263414544382   -0.29734860127922
