106
 SCF done       -249.276526386368          0.000538259777
C          -1.63586355489777    4.61646837754894    9.96091289857846
C          -1.30758039917265    3.28830619038546    9.87676906993582
C          -0.36301584117467    2.65429410226009   10.71285048655960
N           0.38630260562503    2.07648990745494   11.36237522657512
C          -1.81879137390225    2.36217000095724    8.94226625522753
N          -2.16586431774963    1.54822600041365    8.20995186289146
C          -1.02312026722719    5.57379278134154   10.87266612813894
C          -1.51821872892257    6.86564951034666   10.57309458001834
C          -1.11922337945634    7.99218860305179   11.25106253276078
C          -0.18599449363636    7.83565144322056   12.28043358003323
C           0.29936113259337    6.53911323546769   12.57968463026071
C          -0.10333202583639    5.40169743094357   11.89149453206148
S           1.43847382523892    6.57053204652556   13.89064761933563
C           1.25272805530937    8.29998316439339   14.01613253959982
C           0.38187195962981    8.82899262702340   13.12355219388623
Br          2.22391780663106    9.24192204742486   15.31377130014629
C          -2.48888037367162    6.78187876887637    9.46733113331652
O          -3.09352510897407    7.71472885881826    8.98517985971164
C          -2.58687655227827    5.33950484123961    9.12687932371054
C          -3.47411337959481    4.73050815707238    8.28474522414781
C          -4.41208355765299    5.26390065436285    7.37498216572368
C          -4.63958391380850    6.54934462796812    6.89876198579192
C          -5.66979029867439    6.58512458848310    5.96847010260591
C          -6.24618921000078    5.31681423656727    5.72621039100804
S          -5.50373878880704    4.08656811329578    6.62930656465231
C          -7.29724059059819    5.45922242418549    4.78769059356592
C          -7.38073851771281    6.82407523167247    4.43337152286412
C          -6.36174934302610    7.57232134040304    5.15654756530408
C          -6.11916419477126    8.91092300872828    5.07812339344732
C          -5.08350772973894    9.55445824491341    5.79089595085188
N          -4.24201396932536   10.10380948523318    6.34149593925682
C          -6.90063963985176    9.75468548585347    4.25843314820544
N          -7.54583684805876   10.43337186213240    3.59719374566982
C          -8.38719042120784    7.06280296121005    3.51587974834500
C          -9.08221542269318    5.90068685844781    3.17039912288245
S          -8.45544091249271    4.48302455494382    4.00536270912625
C         -10.16705649914275    5.90032242685521    2.26354485861511
C         -11.03290382591336    4.89708451133296    1.82463554771965
C         -10.93190327932716    3.51640902955170    2.23164551320320
O         -10.07766430210917    3.08341167399348    2.99458387022563
C         -11.94884037294605    2.63033461126670    1.64153029659271
C         -12.95002305639620    3.10241521777692    0.75366672440049
C         -13.78099981358674    2.08918388348714    0.33429933477769
S         -13.36268243054004    0.56449748266619    1.00385705043119
C         -12.05799582355753    1.27673107235330    1.86290131894848
C         -11.19414999504456    0.41721267809594    2.73456684352683
F          -9.91753643137226    0.40340220424893    2.34344480871221
F         -11.22439706971127    0.78928854231883    4.01718878000653
F         -11.61449665240653   -0.85976886606626    2.70136534950333
C         -14.94832343181233    2.18765895598793   -0.59957615713190
F         -14.60618243437509    2.64175693763554   -1.80781556277027
F         -15.50083277381556    0.97677700035338   -0.79246249432981
F         -15.92097369034600    2.97304179208761   -0.12879407121732
C         -13.05675958925484    4.51745106463920    0.36104946566755
O         -13.95617973433843    4.90712892177617   -0.37283211164451
C         -12.03656098708576    5.37115113615408    0.91966528200120
C         -11.92835833544966    6.73470966777931    0.64041403926279
S         -10.58580692293842    7.42344993533131    1.51913427975898
C         -12.67385813780227    7.60532509623733   -0.18680568063950
C         -12.32280159312064    8.94262273210315   -0.38909163402508
C         -13.21470449910710    9.60348052484616   -1.21297887836376
C         -14.26927795116649    8.76518916187234   -1.64052105131817
S         -14.14397451474096    7.17076330968644   -1.05463097716393
C         -15.13327557806523    9.53455117122231   -2.46079504648734
C         -14.62780571656254   10.84814251650347   -2.54597151883001
C         -13.39487415485892   10.92912471732079   -1.78416562419930
C         -12.56751186210799   12.00777224517432   -1.67831784918829
C         -11.36968022756728   11.96150609507687   -0.93392538311757
N         -10.39890195755824   11.91359853010487   -0.32665118639821
C         -12.86723334960581   13.22582033685790   -2.32447036594907
N         -13.13286119705194   14.20748187005696   -2.85414029644476
C         -15.40441376361932   11.67740636173564   -3.34442037138703
C         -16.49785317068297   11.01183807588077   -3.87937017906968
S         -16.57029501300795    9.33708301887243   -3.34876289718907
C         -17.52285308938281   11.52272207299269   -4.70917992448084
C         -17.51899947287201   12.64757922262565   -5.47359979462243
C         -16.47474407033551   13.54532517438633   -5.92643296278658
C         -15.17013399269555   13.22223890188630   -6.19376233567153
C         -14.24512195921607   14.11356015055068   -6.77878353688305
N         -13.45929076303223   14.79619702152926   -7.26081423932756
C         -14.62167544027434   11.93790965207809   -6.01108761490375
N         -14.13762098805431   10.90276181662037   -5.90025274099780
C         -17.12145864047888   14.79252901133460   -6.31996072521710
C         -18.52503158369265   14.59068540312490   -6.35149149570560
C         -18.82835374325787   13.21650962047605   -5.91254177281967
O         -19.90297682423539   12.66658569085602   -5.86228101062384
C         -19.40294164139599   15.57943904954242   -6.72565654914666
C         -18.87194750051321   16.82642904650951   -7.07162217779304
C         -17.46993792226564   17.02251101866197   -7.01800104395515
C         -16.58082208350130   16.02087430466185   -6.64799323024040
S         -17.03304109088000   18.64072084957002   -7.47006454073590
C         -18.71377999294106   19.02717904998748   -7.72798741285849
C         -19.56127584573786   17.99858420633633   -7.48550914436597
Br        -19.19093691428409   20.75072280286958   -8.28972504953429
H          -1.51478816159526    8.96184423661176   10.99252881958417
H           0.29435968648749    4.43796509710338   12.16129669781346
H           0.14841148170008    9.87610806768234   13.06095787835315
H          -3.48850502260122    3.64703508919225    8.31128751515786
H          -4.07669899144971    7.40048290851592    7.23744900394503
H          -8.63063344532530    8.02705284786228    3.10538806022074
H         -11.44917498163221    9.38775600753146    0.05429829912439
H         -15.22038525138431   12.72462074751356   -3.50055056824046
H         -18.46790750923628   10.98821644071071   -4.68922798824143
H         -20.46587975912072   15.39777852590145   -6.74999570313759
H         -15.52194996951024   16.21656069331110   -6.61053081442081
H         -20.62859660924377   18.06250785521204   -7.59322355032107
