101
 SCF done       -212.096231838953          0.000398064334
C          -2.32737314414639    3.45591853162606   -4.75763953615071
C          -1.38360201092157    2.50803506100768   -4.45977303494567
C          -0.26546982106732    2.22337811016674   -5.27273435415873
N           0.66282215523944    1.94472216951390   -5.88760838560951
C          -1.37965130848757    1.67398847323251   -3.32142343771860
N          -1.30339821242566    0.95662071586105   -2.42783724017939
C          -2.32655224470013    4.29691398894702   -5.95099228164991
C          -3.47449072524602    5.12736469375274   -5.92474353185397
C          -3.75976304205035    6.03549084726421   -6.91527740871083
C          -2.86621350316486    6.13173286287652   -7.98686936076271
C          -1.72086210095534    5.29997175249006   -8.00601871911107
C          -1.43460517205519    4.38074728606755   -7.00378986328235
S          -0.74973898797095    5.58247563870159   -9.41803043524290
C          -1.87882824494841    6.79709494576808   -9.95671444647640
C          -2.93035789672676    6.98306156978108   -9.12329543626126
Br         -1.56338050778613    7.70483522127417  -11.56671169819557
C          -4.24481591280748    4.84320069371807   -4.70432426532053
O          -5.29059853241195    5.37509543564016   -4.37037902334270
C          -3.50364901693372    3.80606524627579   -3.97990999851323
C          -3.85513759777529    3.27918238987240   -2.76411772171093
C          -4.95861853164101    3.54956014445557   -1.93995574443317
C          -5.12809134583373    2.90834088179674   -0.70642556411243
C          -6.27695442206213    3.31180087599354   -0.05380393512792
C          -7.00321636024279    4.27113488378003   -0.79497423050585
S          -6.27277555519828    4.67718123197034   -2.27608991390323
C          -8.16049375250849    4.61450136593438   -0.04414524095627
C          -8.16249889195740    3.88553490537121    1.15311865376334
C          -6.98288050202953    3.04089548346943    1.19238028358826
C          -6.61296365265234    2.17899841449466    2.18174678955334
C          -5.43215615443883    1.40938654723068    2.10692771160079
N          -4.47380927147136    0.78274760136781    2.05463674612440
C          -7.38438179703961    1.99713108319456    3.34982885095473
N          -8.00638375749551    1.84384632591088    4.30040098322269
C          -9.27964083014168    4.16693920052801    1.95828325012546
C         -10.09220433038474    5.08991742230220    1.36302595331392
S          -9.51821538299946    5.64390570999215   -0.18608656771976
C         -11.39186713941607    5.64154856283703    1.86577579100784
C         -12.56573466324261    4.78333175377632    1.35366205746748
N         -11.54395733140289    6.94958831639569    1.21628225394152
N         -11.85052298677502    7.98622141769243    1.74388129723269
C         -12.12676570220005    8.19238365523761    3.17197889030268
C         -11.78234735818403    6.98608962967269    3.96975810609318
C         -11.42477847213419    5.75738101870861    3.34412174906043
N         -11.15927964569245    4.89795198329297    4.28621914798258
O         -11.34091732352056    5.54142853933493    5.44456627854155
N         -11.71727700044864    6.81080828169935    5.25869263801800
C         -11.29537144553533    9.40881079062544    3.60242092450143
C         -13.59901311886657    8.47140284066077    3.29317099488731
C         -14.24999015385780    9.04459583514736    4.35027732900045
C         -15.63279354037638    9.11982644649214    4.12037074876772
C         -16.00567461795169    8.58800657907408    2.88029880990575
S         -14.66866277313101    8.00177909390940    1.99513877236826
C         -17.41607658227173    8.69608710521514    2.74446360870499
C         -17.92987828403910    9.30639998938532    3.90234950722195
C         -16.82420911285889    9.59675704539741    4.80409709589657
C         -16.88871965780208   10.20354461513094    6.02272735241840
C         -15.73439689295006   10.45396574662976    6.79595365713676
N         -14.79519506610865   10.66919511325711    7.41666690109569
C         -18.10895603569005   10.64163989729273    6.58135698684741
N         -19.09672287532256   11.00714213825004    7.03327775627701
C         -19.31125717231425    9.46812095156121    3.85651423875925
C         -19.86333422210060    8.95056457501959    2.69518267542765
S         -18.62669402475957    8.30612198275129    1.61738365323723
C         -21.23185815986553    9.00940704620685    2.33905658959725
C         -21.92034665723782    8.30811767634547    1.40037564120861
C         -21.62080511766381    7.10196140540767    0.65631811725471
C         -20.88908502243121    6.03545840575289    1.10960877419559
C         -20.70881300496535    4.84132781889329    0.38298630431543
N         -20.51672149049375    3.85956608478050   -0.17945568712702
C         -20.31299606295465    5.98483121011038    2.39550619962648
N         -19.86433574232584    5.89669705168554    3.44845854110612
C         -22.48373588359511    7.09361007977727   -0.51872910157072
C         -23.45763845229440    8.11470604542291   -0.37322399742841
C         -23.20433825683533    8.85762521430227    0.87711985108435
O         -23.85469055653776    9.75569107642041    1.35627573212203
C         -24.44766308904209    8.32443928850276   -1.30247951519445
C         -24.47016813213627    7.49698181866217   -2.43024759849459
C         -23.48445640864688    6.48968163696618   -2.57172668145312
C         -22.48827111410125    6.27058699312718   -1.62829113821554
S         -23.69455351874886    5.59223366564789   -4.04346822413520
C         -25.08704095751745    6.56343797176823   -4.44247047850337
C         -25.37985040927516    7.51347813054860   -3.52248506460796
Br        -26.01852343218861    6.23331907884546   -6.03553930463319
H          -4.64324662568908    6.65231730055830   -6.86463734737772
H          -0.54833757317643    3.77223327138462   -7.06661415673435
H          -3.71895441309790    7.69110076228276   -9.30130446879464
H          -3.19042898824209    2.53500060565342   -2.34223338655023
H          -4.42302912864380    2.18521986477340   -0.33592550941161
H          -9.48880810028035    3.72635553240912    2.91651405671485
H         -12.56898663269303    4.79361303031557    0.26682847433738
H         -13.51235916704761    5.18272594742128    1.71361471861309
H         -12.44575954903102    3.76488481617096    1.71337249903694
H         -10.23990641783342    9.21212763852894    3.42638764218228
H         -11.44556996825528    9.60056673318787    4.66032202909344
H         -11.59335519378424   10.27591499531228    3.02032149371560
H         -13.75616364927294    9.37568496803162    5.24459245328917
H         -19.90976526962606    9.91000786723882    4.63255475402719
H         -21.80217439734839    9.78771684896091    2.83867728998225
H         -25.18320664738419    9.10108302796822   -1.16386286649526
H         -21.75409766531878    5.49603124072688   -1.77767260778419
H         -26.20303558066244    8.19882623365895   -3.60920109712649
