101
 SCF done       -203.426589715638          0.000671627445
C          -8.06430183666061   -1.72283275988346    2.65676381955527
C          -6.95884573520417   -2.24659982293583    3.27138770287189
C          -6.91315856083863   -3.53671273776074    3.84092317027841
N          -6.82081546579848   -4.57515258320850    4.32101300139567
C          -5.70483098081162   -1.60520802074709    3.37286610987240
N          -4.64554499529296   -1.17357256536905    3.47277230077768
C          -9.32267319527136   -2.41762991295266    2.43108546010714
C         -10.12729108101020   -1.62325366615835    1.57912806382029
C         -11.38372822318291   -2.00692976089799    1.17649067475146
C         -11.87113570416417   -3.23214727242439    1.64220874565906
C         -11.06071567146083   -4.01863656563439    2.49663973332975
C          -9.78891073413154   -3.63238108087810    2.89982943115203
S         -11.86061667468950   -5.48975190565566    2.95962495858649
C         -13.25224587091391   -5.03635595931866    2.01131909650023
C         -13.12703333490983   -3.84471248159213    1.38020283175617
Br        -14.73888708187451   -6.17724144369863    1.94825589268717
C          -9.41019474918491   -0.38067853972714    1.22848493860322
O          -9.80810725085772    0.46976404253474    0.46270145272064
C          -8.15623499188730   -0.41046207715858    2.02817095895202
C          -7.33589975097982    0.62737324997119    2.34760595932091
C          -7.26570564524030    1.95608737049291    1.81802882764573
C          -6.70846377317846    2.96796592161199    2.64296048199153
O          -6.33957996314774    2.59641447584716    3.89095253613978
C          -5.69088184111033    3.53575044153626    4.71753394128706
C          -6.60995413712449    4.25882626919931    2.15252561019105
C          -7.03860819635788    4.58480035024538    0.86891405703724
C          -7.53263012243538    3.56943946378707    0.02001083113357
C          -7.63475358273917    2.28068724924492    0.51031010574645
O          -7.81282286562802    3.91138671065070   -1.26354822661438
C          -8.44688557827365    2.95437921532874   -2.08556410929479
C          -6.93738998771534    5.95962977927942    0.39914586517763
C          -7.97098557196982    6.56881458359628   -0.33366973549445
C          -7.79651408069294    7.85037313342146   -0.96746774011589
N          -8.78569906867557    8.37201848184470   -1.72001176952877
C          -9.90704316488667    7.72094460550264   -1.83458119887480
C         -10.11775718279280    6.48722608132125   -1.11582865947513
N          -9.16809117696158    5.95504837591435   -0.39948107927889
C         -11.38022916907679    5.84339244333830   -1.17256186992917
N         -12.40338101001184    5.33586860560372   -1.25584717606541
C         -10.93748556395331    8.24627225126501   -2.65540516005160
N         -11.79154499424302    8.62205003125989   -3.31900206687008
C          -6.61973330971416    8.60210933620757   -0.81308163245532
C          -5.65602060026544    8.07044190428200    0.04973243659007
C          -5.80339688238418    6.75106251763858    0.63421253457030
N          -4.72899935699626    6.42024904361241    1.36340172929311
S          -3.67453506026262    7.62232039965875    1.32272754797827
N          -4.48656850666295    8.63188798494077    0.38498491034940
C          -6.50765533158596    9.90274661955770   -1.46697647911309
C          -6.77477284588860   10.09549747898921   -2.83313305952589
O          -6.84096693898345    9.13456289774732   -3.79297417221388
C          -6.18630284914371    7.90058706394669   -3.61934994146928
C          -6.95421025918229   11.39354910273203   -3.29116806638739
C          -6.81599253819904   12.49948705482689   -2.46083364151662
C          -6.38062151502972   12.30354809352679   -1.12972262793917
C          -6.25584148351116   11.00992216924936   -0.65574262473781
O          -6.18604149149878   13.42063115055396   -0.39227375846161
C          -5.82297739274806   13.28439335585246    0.96197207400557
C          -7.05154336041807   13.83505082150237   -2.94500460944371
C          -7.96748104160933   14.22030846924137   -3.86062083481385
C          -9.08567969476403   13.51645702411643   -4.47146720645237
C          -9.84845348816225   12.53749898581506   -3.89539956676513
C         -10.99697250335664   11.99613429414427   -4.51443689109884
N         -11.93342117769349   11.54859699523104   -5.00245740183275
C          -9.66154685734131   12.04094177653964   -2.58753678240698
N          -9.61763690663381   11.64657985690648   -1.51052189973140
C          -9.41187551103723   14.22638019844763   -5.70400142585263
C          -8.70677161478684   15.45719115961655   -5.72356922577526
C          -7.84434129977600   15.54724258998532   -4.52922700625136
O          -7.14356926971809   16.47018165724108   -4.18667552448850
C          -8.83900841705423   16.36725200606428   -6.74487477162252
C          -9.69508746569199   16.04320823465606   -7.80189321446163
C         -10.37943770675093   14.80371280661444   -7.78232808882974
C         -10.25398283772967   13.88673264440559   -6.74646127047230
S         -11.37031743992574   14.59867631916796   -9.19431801972588
C         -10.86431007521281   16.16115105002896   -9.78094532352365
C          -9.99598894667315   16.80413674864565   -8.96486868676805
Br        -11.52585171605537   16.79334512184093  -11.41757354163051
H         -11.97256647434688   -1.37994856993209    0.52545037838377
H          -9.21192019134362   -4.26184585677664    3.55652684849085
H         -13.88836422471446   -3.41269992509524    0.75674869230707
H          -6.64909020340448    0.46637936799361    3.17087188894975
H          -5.40818449606852    2.98702491102228    5.61434940237897
H          -6.36098349712699    4.35644595891849    4.99101479750646
H          -4.79416167546508    3.93740359375184    4.23753728417494
H          -6.21407725515964    5.05156849308499    2.76440748003668
H          -7.99208308476286    1.49037522340161   -0.12357308469047
H          -9.34991690675132    2.56009095262680   -1.61309316638131
H          -7.76988036893025    2.13067530008382   -2.33236469847072
H          -8.71507186140417    3.48272678994023   -2.99960691670344
H          -5.89295319145584    7.57467256859610   -4.61853035570773
H          -6.84546660535060    7.14212551675090   -3.18586981217983
H          -5.29437387289392    7.99884803387461   -2.99492789659883
H          -7.18795105618924   11.52784249519482   -4.33607315706025
H          -6.00941666565168   10.82183343466262    0.37623622634074
H          -5.70584924424835   14.30017209812300    1.33576607935279
H          -4.87742644917211   12.74453198698966    1.07197246825632
H          -6.60543046198535   12.77642294351735    1.53333140389517
H          -6.39872716094528   14.61131144497079   -2.56128115629007
H          -8.29704403624256   17.29978194818561   -6.72944823564084
H         -10.78876193067933   12.95210507975406   -6.77791601343449
H          -9.58298682788815   17.77431729990618   -9.17253016128598
