108
 SCF done       -257.777695716894          0.000530811016
C          -9.52118410226261   -1.86106335402283    9.48483274738906
C          -9.32218488367271   -1.21459882462942   10.67654037212724
C          -9.25737197609093   -1.86711291420366   11.92627457489910
N          -9.20084869637507   -2.34145188076278   12.96963540140386
C          -9.11021470602746    0.17322413359328   10.82179263265143
N          -8.91057922577014    1.28775966372872   11.01246618423907
C          -9.62591451755123   -3.30231117828886    9.30731701157258
C          -9.64285722432302   -3.58776466055859    7.91996206017227
C          -9.72893633910143   -4.86726934741456    7.42634056054862
C          -9.80385728717071   -5.91676338538916    8.34745290560969
C          -9.79040582879813   -5.62238548362936    9.73317692677685
C          -9.70161123961023   -4.32860576287755   10.23118129327636
S          -9.89952046360550   -7.06501591143159   10.69363750262942
C          -9.95930879836868   -8.03156801186192    9.24328313968054
C          -9.90085528271951   -7.31225844821562    8.09673974551094
Br        -10.09587490564363   -9.89598852632582    9.38010860438677
C          -9.56348031992728   -2.33220452643453    7.15192935513124
O          -9.56486251851989   -2.23100745265868    5.94495175895143
C          -9.56243059438773   -1.24589954081467    8.16729498112264
C          -9.76305416092940    0.08581709217172    7.94421283688956
C          -9.71338696034806    0.81011320813728    6.73246935133521
C          -9.13270171317628    0.51567217793468    5.50609558342156
C          -9.26050785203202    1.56362150390726    4.60345414006573
C          -9.95663054188576    2.67210505409786    5.13530979296183
S         -10.41731561109326    2.43039959935405    6.75260061689025
C         -10.04495223454563    3.66886880962349    4.13341676036710
C          -9.38907046660061    3.20484572488043    2.98028971524941
C          -8.88162992270118    1.86452786975200    3.23288496532199
C          -8.20362490454153    1.07467942653430    2.35291338773119
C          -7.71034501867798   -0.20579309826290    2.68670415506508
N          -7.28078762428874   -1.23648803247766    2.94286795534016
C          -7.94707043635659    1.51069101336661    1.03470461161079
N          -7.75883612195150    1.88396978355204   -0.03300193619404
C          -9.39472488016601    4.13295983011456    1.94478206154571
C         -10.05193048194240    5.30468273357342    2.28684055082913
S         -10.67885783940581    5.24070266952486    3.92827309044647
C         -10.26445841132113    6.41010447361101    1.40088940769807
C         -10.06643009293143    6.07181355157006   -0.02921333487113
C          -9.07177574051004    6.69226756103999   -0.78485580116742
C          -8.84444141910434    6.34463313156654   -2.11119843885501
C          -9.61628303140383    5.34982127264652   -2.70766982256162
C         -10.60988329428418    4.71108042265199   -1.96986388901019
C         -10.81995915955396    5.07319557347817   -0.64389799196094
F         -11.77997567499426    4.45959146772484    0.05260132363441
F         -11.35640471362511    3.76530212206640   -2.53405726157796
F          -9.41133435994860    5.02045685088567   -3.97870758176583
F          -7.89782856466844    6.96432669950554   -2.81425602820268
F          -8.33071926304074    7.65324383647310   -0.22926871420773
C         -10.60151853334519    7.68233175974263    1.77978048564057
C         -10.56066778116918    8.08140458273448    3.20749930019863
C          -9.36751314027189    8.04812547852342    3.92893465786515
C          -9.30618359863220    8.47090473135376    5.25161900739040
C         -10.45580510249675    8.94609947056841    5.87953165333958
C         -11.65731615640308    8.99334322672291    5.17651572732332
C         -11.69592444255011    8.56825438177093    3.85314175561519
F         -12.85402464707331    8.61132558167364    3.18983592292752
F         -12.76147516386346    9.43731828506975    5.77122931520109
F         -10.40706694656236    9.34353903201756    7.14598337183642
F          -8.15558725865454    8.41764488195352    5.91947186132988
F          -8.26073089484655    7.58720796578932    3.34213750092823
C         -10.99212524489452    8.74023220087750    0.89666580597507
C         -11.00556170686806   10.08576779652386    1.23118410878508
C         -11.47746725535100   10.88568317460247    0.19630515801963
C         -11.82819191131925   10.14931648570847   -0.94786583569073
S         -11.59379259223691    8.47261942281526   -0.73394914248655
C         -12.25763385320991   11.05267610919728   -1.95025736132794
C         -12.19107935588157   12.36281300312512   -1.43362835523358
C         -11.71354000386482   12.29811618093062   -0.06239951613593
C         -11.53748946405538   13.32656588854212    0.81468432708205
C         -11.08826624651740   13.09339946492746    2.13256352589332
N         -10.72676319353013   12.87721254116347    3.19886571864421
C         -11.79374772322243   14.67003257863956    0.46558370645890
N         -11.99285236398538   15.76200379397687    0.18140259627125
C         -12.56823117390950   13.32567767400227   -2.36311719764393
C         -12.94733132870892   12.76839192204990   -3.57599288780121
S         -12.79177797019713   11.01410149049024   -3.56418467586365
C         -13.29139837311368   13.50306334192990   -4.73602235262149
C         -13.86047193538799   13.09300947938591   -5.89920088056816
C         -14.56474965089920   11.88705985685568   -6.28489777554714
C         -15.39780259610095   11.15205717628396   -5.48305496666781
C         -16.14786751984483   10.04791474322050   -5.93644632921112
N         -16.76126020555889    9.13427485642128   -6.26123191882856
C         -15.66211142395746   11.49048456518353   -4.13997841189272
N         -15.92025361204249   11.76773972017008   -3.05647637745427
C         -14.47517376490235   11.78150486404811   -7.73578465276794
C         -13.97753119707422   13.00712405322554   -8.24938591422974
C         -13.66628082964406   13.91662666058590   -7.12996181296098
O         -13.28068379146487   15.05966481228513   -7.17912145997528
C         -13.82368349012642   13.23107804870364   -9.59631989897912
C         -14.16362253759552   12.19530869634913  -10.47300055944562
C         -14.64529518451404   10.97058034105571   -9.94797253454560
C         -14.81133914913034   10.74653817466350   -8.58673855151701
S         -14.99155237132796    9.82742851106132  -11.20780744323304
C         -14.49764777562430   10.99264254985443  -12.40769153458106
C         -14.09163837706551   12.17793659553796  -11.89236579490736
Br        -14.56256304567338   10.53380183716561  -14.22383118288317
H          -9.73654324619173   -5.05087985760936    6.36343767758454
H          -9.70085106058771   -4.15532595936578   11.29429498694508
H          -9.92596955169323   -7.74649636003446    7.11404748559051
H         -10.01886130586918    0.69441828547710    8.80407708296657
H          -8.64464244834001   -0.41854739938522    5.30009718130438
H          -8.92073878257180    3.98096096941872    0.99272063095551
H         -10.65849381085768   10.46080601429379    2.17624441765317
H         -12.59062830893887   14.38530422386770   -2.18249442217123
H         -12.96674404433350   14.54005612317970   -4.72891488739832
H         -13.45294450329600   14.17521319996112   -9.96314062707230
H         -15.17519711194871    9.79758784532761   -8.22830935497760
H         -13.75442454003936   13.00664800532454  -12.48764761796546
