98
 SCF done       -211.410561486583          0.000776373582
C          -0.53387659771079    2.97913443191229    6.78371277146872
C           0.33006552209761    1.99722985672953    6.37562208527963
C           1.48531866438629    1.61500232623067    7.09068056868661
N           2.43418272516333    1.25680419380720    7.62770939982260
C           0.21747031010510    1.24511931247599    5.18672387281766
N           0.20559133874860    0.60303740319202    4.23487453702677
C          -0.37562752229818    3.79823170273858    7.98115947510377
C          -1.41520775320638    4.76105185301168    8.01558812404156
C          -1.54001197643743    5.68724379068870    9.02265072276686
C          -0.59320020838987    5.66070603785109   10.05151865526571
C           0.44160417591507    4.69498621337220   10.01183581323001
C           0.56810846713735    3.76084162790484    8.99060600380715
S           1.49999844559377    4.83683090291087   11.38136702955763
C           0.55218094278381    6.17193331952358   11.98147197270711
C          -0.50335414425183    6.49708561732105   11.19710489867021
Br          1.04498174361036    7.00960982115323   13.58468571998283
C          -2.27932218476012    4.57751427514677    6.84037173323589
O          -3.25481636799371    5.24851367989717    6.54848085591926
C          -1.73925500380203    3.42724246898782    6.10643405830225
C          -2.32268347327262    2.83318119353969    5.01839353166435
C          -3.48978108965361    3.17546893329989    4.31504517002974
C          -3.97587949699810    2.38229637986691    3.26798030485172
C          -5.13736326536752    2.88760697106672    2.71587009311460
C          -5.53663617642967    4.09671739993925    3.33243293741760
S          -4.50694322488896    4.58640049818502    4.59710351872652
C          -6.73077605141888    4.52914332270988    2.70760778269879
C          -7.09430519881948    3.60236302810835    1.70989684226077
C          -6.09532974083661    2.54586967798808    1.67287819487196
C          -6.05034979743932    1.47071510971149    0.83748156707517
C          -5.02004109468023    0.50770992232214    0.91662214929807
N          -4.19123475950407   -0.28130146502535    0.98181130044132
C          -7.00492254634810    1.23312311895953   -0.17644718882391
N          -7.74983811492436    1.01551949563059   -1.01946255623219
C          -8.28094515241687    3.93657124059131    1.06159907763740
C          -8.81196665411445    5.11929005745219    1.55138075913668
S          -7.83347250530227    5.82264252453033    2.83024203687853
C         -10.00635280666950    5.76084608731082    1.13866228380036
C         -10.98735477918370    5.32765014169806    0.27369149556586
C         -11.28859722014466    4.14543319744529   -0.54865252504638
O         -10.66827139072262    3.12470622684692   -0.71228574606495
N         -12.51169214467948    4.43038253821261   -1.15201296332029
C         -13.17332165343865    3.51639562024671   -2.05037010905249
C         -13.03277893194135    5.66673194168487   -0.80682173591181
O         -14.07905543278251    6.12381515872126   -1.20677385244497
C         -12.05153423583083    6.24463657689552    0.11359124748429
C         -11.92565574504171    7.40818384803910    0.83455102381936
S         -10.43007075632618    7.35347387089021    1.75039153292073
C         -12.79836477081943    8.52000696521869    0.90041584197319
C         -12.59072941815755    9.68937753259196    1.61594151298981
C         -13.64891767819152   10.57838643214471    1.46564151621329
C         -14.66801685751430   10.07004941452440    0.63481641846426
S         -14.32353156281123    8.51395250092440    0.02789975402612
C         -15.70528345525797   11.03562622437143    0.56154378511681
C         -15.33201841555633   12.15384885017347    1.33383251715076
C         -14.03388910186112   11.89919294713971    1.93398658839392
C         -13.35274454907434   12.71823979296584    2.78580481329888
C         -12.09932205271660   12.36332884928395    3.32663906999438
N         -11.07728040012680   12.07418478693963    3.75758352162192
C         -13.87307103905823   13.97233446297626    3.16965922153709
N         -14.31024429860348   14.99003095318394    3.46638832268042
C         -16.30483292932977   13.14395439334123    1.35982367965154
C         -17.42975602304788   12.79169443408901    0.62774443064447
S         -17.24248054143186   11.21941443677340   -0.14100825757415
C         -18.61954044505120   13.52400547946924    0.41979208214019
C         -19.11054599568277   14.57694768314346    1.12894539089685
C         -18.78200427167770   15.15698740266384    2.41561836531568
C         -18.29877215209887   14.50134537546828    3.51810962168204
C         -18.13211805076022   15.10684407430222    4.78197055611076
N         -17.98241437341582   15.54921596267392    5.82987929213529
C         -18.00462206998961   13.12457502840649    3.55291583659071
N         -17.77601689865406   12.00253283661942    3.63849461555738
C         -19.32549021632190   16.51137272495193    2.42744854316940
C         -20.17782632887110   16.67159986537190    1.30538968455219
C         -20.14729344910963   15.44134811389956    0.49300374766505
O         -20.78182886188433   15.18782063489557   -0.50397327569822
C         -20.87448975136625   17.83217004636581    1.06956556731338
C         -20.70982799222910   18.88680912214727    1.97369985388288
C         -19.83842918833162   18.72362716538980    3.07828863854213
C         -19.14184649879138   17.54657832653470    3.32360078639306
S         -19.76996980438051   20.15716951061598    4.05572516318611
C         -20.90181858957320   20.94431997034403    2.98794931011294
C         -21.30931688400180   20.17555110780401    1.94987659461134
Br        -21.43600188851143   22.70607407037373    3.34237756585108
H          -2.34310254394486    6.40737205056871    9.01773899832922
H           1.37309977211611    3.04564519503607    9.00917342388475
H          -1.19117421275470    7.29312500750221   11.41653509919336
H          -1.84393721373451    1.94243605293186    4.62942354869200
H          -3.47915684903491    1.48068356850619    2.95580832156399
H          -8.75557863179188    3.36444073909923    0.28340361373305
H         -12.50892602014720    2.66917858398708   -2.21036687714841
H         -13.38356577978164    4.01507365441666   -2.99667331800942
H         -14.11339808264708    3.17490869534963   -1.61485952370559
H         -11.70853092538244    9.86072062752031    2.20711311570778
H         -16.19672708860173   14.09503616276963    1.84824861146549
H         -19.20099229836176   13.25638389164121   -0.45746070897899
H         -21.52526100835191   17.92472778060089    0.21436238030464
H         -18.48170890474740   17.46882810342445    4.17158876426885
H         -22.00349054554115   20.50228095693849    1.19738940399744
