96
 SCF done       -201.259866409687          0.000983367191
C          -2.08403804387913    0.76855808038010   -4.85001521905890
C          -0.78129015991915    1.15251183229550   -4.66730963349923
C           0.32351984735376    0.51166610079377   -5.26827037931833
N           1.26175228694945    0.03635100155691   -5.72823568400486
C          -0.34147852054983    2.21643586353250   -3.85108416831349
N           0.09939147594533    3.05586457945406   -3.20302709652085
C          -2.52302618644584   -0.36121834967314   -5.66349848598891
C          -3.93079877132791   -0.48287078681402   -5.55417809277127
C          -4.64581516207430   -1.45846954643596   -6.20532952834778
C          -3.93752034758144   -2.35853250373016   -7.00847267450633
C          -2.53209689249086   -2.22866187276770   -7.11548916679238
C          -1.80971824044029   -1.24279291093250   -6.45418646117907
S          -1.85599394525943   -3.43923341010536   -8.16167545634799
C          -3.44715456087612   -4.09626518702776   -8.43635380315947
C          -4.43600561218460   -3.44343125872422   -7.77974517781740
Br         -3.65327282822043   -5.58055747350698   -9.56358602736185
C          -4.43738534057636    0.57807476155130   -4.66928296494333
O          -5.59945578220996    0.75778331663882   -4.34609850376232
C          -3.27069416437492    1.37216063660796   -4.26885376867091
C          -3.30836044849186    2.52299534875135   -3.52551997061527
C          -4.39596893895909    3.20314907080206   -2.95525933718760
C          -4.22878533185205    4.42999514843568   -2.30141078534684
C          -5.42242120090544    4.95045306274585   -1.84133979189867
C          -6.52199750300789    4.10497794491851   -2.12288080883359
S          -6.08485683890618    2.69426321358045   -2.96851844778902
C          -7.69752992430808    4.73879168329554   -1.63703751526375
C          -7.34012132647721    5.97702513568299   -1.07066357730989
C          -5.90298532408792    6.14827981006184   -1.16865490727813
C          -5.17006821756198    7.21340904304848   -0.73373338697043
C          -3.76714272741954    7.27278614949712   -0.87278022630923
N          -2.62729795274224    7.32858428445443   -0.98160331284477
C          -5.77215669418601    8.33336225936316   -0.12203921410119
N          -6.25998151157497    9.24993483592336    0.36507094357325
C          -8.44184554718956    6.68973453450115   -0.59737076217534
C          -9.61429936216068    5.99423070261838   -0.79404421118656
S          -9.38018910297006    4.44884625395409   -1.56028084228174
C         -10.93786651882288    6.46148901578782   -0.45823478294969
N         -11.95515651954169    5.60654864365426   -0.56641321967382
C         -13.15206120940870    6.07497820397357   -0.25592923297290
C         -13.36199989758197    7.38609940504958    0.13799915416100
C         -12.23398619380441    8.21766985994195    0.19908047521995
N         -11.02588574311237    7.73101068776865   -0.08723781415418
C         -12.32221577531971    9.62399113419289    0.52491761550968
C         -11.21811210851350   10.39746719517967    0.53763172212999
C         -11.16401766480940   11.80223702956121    0.74859791910844
C         -12.18701460119746   12.71210885877681    0.95672194100919
C         -11.71233371673730   14.01979519785466    1.04637002919372
C         -10.31308919469026   14.10322978527053    0.91073050415319
S          -9.59125478269165   12.57982076358511    0.67779937721308
C          -9.93259440741893   15.46799241283478    0.97090488172517
C         -11.09415620170757   16.24692235761056    1.14190663683646
C         -12.24758842895161   15.36387783968655    1.19449669138056
C         -13.55493952958146   15.73470275771551    1.31270491479696
C         -14.60236364481121   14.79071453789131    1.34610514840653
N         -15.44846504993056   14.01796420419784    1.38380427469627
C         -13.92838500368883   17.09217280284632    1.40744676493718
N         -14.21538195082079   18.19980962565576    1.48287980505608
C         -10.83312883365179   17.61131023065862    1.14650618137998
C          -9.48365243491975   17.88679603313815    0.97836594530557
S          -8.52630285777778   16.41449689096151    0.85499822479029
C          -8.82379619954173   19.13404155303400    0.92341638711329
C          -9.33126435394750   20.36666326793110    0.64689579889487
C         -10.58251470436817   20.83206236776198    0.08483524562364
C         -11.38234733071135   20.17109298427345   -0.81162567195052
C         -12.51665049085311   20.74492131992451   -1.42499560180983
N         -13.44271760065904   21.16442861259405   -1.95680377332664
C         -11.11493953477358   18.88330458989337   -1.31422808799830
N         -10.92595808937326   17.84992634143928   -1.77801226363513
C         -10.70036854395749   22.25037633771366    0.41049763089751
C          -9.46232531784104   22.70398445755633    0.93231043098808
C          -8.53077167534429   21.56525761994503    1.03025025900429
O          -7.37505022558925   21.57406720865995    1.38495885622460
C          -9.24505847942585   24.01514950574492    1.28070904535799
C         -10.30230446508421   24.91673923642896    1.11906427728756
C         -11.54208291981341   24.44831785987704    0.61984449654046
C         -11.75996388535948   23.12407476709798    0.25936279470445
S         -12.71279013082711   25.72660620783998    0.51499752666713
C         -11.53652206090026   26.85973434421543    1.12592485620676
C         -10.32917395979486   26.31013235875881    1.39948080652135
Br        -12.01320573697597   28.65951631670290    1.34626255072984
H          -5.71725513424708   -1.52469806015875   -6.09976958650524
H          -0.74072370073337   -1.18633672119526   -6.57119088445279
H          -5.47421995813651   -3.71464705314864   -7.83636266766080
H          -2.36418929896008    3.02597145675380   -3.35421953578292
H          -3.26492833066254    4.89576122591779   -2.19444642469526
H          -8.41998473752146    7.65837500509175   -0.13471876504119
H         -13.96722285425750    5.36742367150644   -0.33633877482850
H         -14.34573456516436    7.75569767457653    0.37598215303298
H         -13.30637737552123   10.02190454997178    0.72191015627023
H         -10.27286978582936    9.90933564699202    0.33961912618868
H         -13.22139444025201   12.43022416266517    1.02649462304077
H         -11.57199918355921   18.37664893022312    1.30068004537409
H          -7.76960826096414   19.12852149973542    1.18577773580881
H          -8.28927067233815   24.33611244466504    1.66410084800195
H         -12.72270769404308   22.81011364797550   -0.10864235689057
H          -9.49089714094967   26.86300783187611    1.78234404100451
