91
 SCF done       -193.365492522573          0.000557146682
C           0.43672658372981    3.60277313759716    3.86659025794480
C           1.28714207068733    4.49277689314399    3.26224344165096
C           2.68415845458111    4.50656589679224    3.45852986322295
N           3.82328774605814    4.57436774979667    3.58254855757190
C           0.90739422625988    5.48897138882336    2.33813267832737
N           0.68258021515590    6.31015353021125    1.56705995183250
C           0.84195143270720    2.50569340595941    4.73594343867400
C          -0.29815076384751    1.72121989321161    5.03388523762421
C          -0.24399200910627    0.60246098847165    5.82911317935460
C           0.99834675488211    0.24088015603635    6.35976495027279
C           2.13286888409750    1.03412896859866    6.06237742437395
C           2.07695874148138    2.16404418443542    5.25585407172031
S           3.56387909074427    0.41372914049086    6.82748075578596
C           2.63282684074427   -0.88533413966309    7.52503622899014
C           1.31758607632512   -0.85806015808908    7.20295486897881
Br          3.48449787855578   -2.15234328071403    8.61349945742416
C          -1.48571062960547    2.30130234539722    4.37887905518651
O          -2.61813266869760    1.87626417752000    4.45818330417051
C          -1.00379263185301    3.52511921251589    3.69256529594721
C          -1.76711857351428    4.52114745364103    3.14712905490421
C          -3.14273645365430    4.53980470008283    2.84449769664537
C          -4.07816979322444    3.52246100697117    2.70267694808261
C          -5.33347579051767    4.00823284865559    2.36557829770019
C          -5.37260311063873    5.41658622547040    2.24904107720989
S          -3.85391363394781    6.12885480371584    2.51772937663833
C          -6.70140662883537    5.80540484793116    1.96038155076785
C          -7.50384153198121    4.65282238639331    1.88672272209477
C          -6.66630180853636    3.48400720492605    2.11844601417096
C          -7.05471866101938    2.17811504012284    2.09069209721873
C          -6.15544358766107    1.10538203889013    2.27918714128392
N          -5.44183011411728    0.21730182725512    2.40349570320783
C          -8.39430036492796    1.80527317485141    1.84547337595590
N          -9.48291349524011    1.50410121783369    1.65005910208585
C          -8.84299587225653    4.93936383748071    1.63160513571985
C          -9.06848489526648    6.30029619542130    1.51503212365242
S          -7.59828488287420    7.23997215444181    1.71023491033476
C         -10.31047997495687    6.94946848398274    1.30161634580883
C         -10.56148787113268    8.30509397268336    1.21211117098827
C         -11.90975916000069    8.60612212284351    1.04650631498545
C         -12.71899678585374    7.48722308446427    1.00294833315650
S         -11.78167045923051    6.02981397560942    1.16220448563301
C         -14.13070193656991    7.43116070808607    0.88346189423649
C         -14.92392202866302    6.29924878311489    0.81227754687799
C         -16.27896524736784    6.61656261460029    0.74450494875830
C         -16.52028675266182    8.00196696024666    0.76486251266478
S         -15.07635842448819    8.91095128754652    0.85570950612744
C         -17.91859706304953    8.22219765290782    0.71880679851582
C         -18.56243427127575    6.96826339202419    0.67132106723946
C         -17.55527480086547    5.92206164079044    0.66681431221703
C         -17.77255942884542    4.57928343783703    0.57407201243381
C         -16.71558166459581    3.64458218818209    0.56215299300850
N         -15.85343153762069    2.88937118692440    0.55872219654589
C         -19.07902021872843    4.05325068450477    0.48328284648909
N         -20.14774258437480    3.64323151701297    0.41709181153432
C         -19.94521506808281    7.07123355521965    0.61842253223330
C         -20.37517437291419    8.39098396457540    0.62011222285684
S         -19.02301161259799    9.51568288799695    0.71689103989206
C         -21.69276208543869    8.89520094229609    0.61820081256993
C         -22.85182387513095    8.26007444582162    0.28731423138523
C         -23.15006999570609    7.02757380007090   -0.41125150544746
C         -22.41064459673403    6.44710190684165   -1.40954187225334
C         -22.83750425651824    5.32592403064480   -2.15210701897850
N         -23.14273232199718    4.42150779975244   -2.78856168013203
C         -21.18697640836271    6.96032959593055   -1.88033090992682
N         -20.19918302199804    7.35873475912964   -2.30930175082931
C         -24.52006077425295    6.65897485745223   -0.06837834240205
C         -25.12875247822383    7.74488872279576    0.61063003202279
C         -24.13937999572567    8.82514646447298    0.78316982502433
O         -24.30626562007246    9.92073447588715    1.26669233257665
C         -26.43658698745580    7.71091888345263    1.03018357603652
C         -27.17187138334885    6.54744987309199    0.77957447697202
C         -26.54799630272029    5.46190901006563    0.11781505993882
C         -25.22791807349431    5.49874285728189   -0.31494783032976
S         -27.63396577452279    4.12064954279368   -0.07384114857069
C         -28.89639262070767    5.02391217896882    0.72043433043189
C         -28.52497018275406    6.26599264453193    1.11257307015583
Br        -30.58373314189017    4.24215007462834    0.95878703067213
H          -1.13207327994681    0.02513609236396    6.03293742083893
H           2.96847464609013    2.73696846548769    5.06341012919109
H           0.60045223047088   -1.58155056647316    7.54530113187992
H          -1.26414230778933    5.45755316173930    2.93432673996297
H          -3.83767466436695    2.48626334991358    2.85046307040416
H          -9.62988042452422    4.21241768955388    1.53981245884209
H          -9.78183775598695    9.04363682316310    1.27251140215000
H         -12.29854420025230    9.60546563714782    0.96263292370557
H         -14.51685045181435    5.30394990248453    0.81500927042394
H         -20.62057274129531    6.23547207968595    0.62864195256061
H         -21.82103144943486    9.90339049019430    1.00082979294891
H         -26.87914936160018    8.55404302954308    1.53688280668002
H         -24.78961893639604    4.64556958027667   -0.80579164272277
H         -29.17670723710596    6.95623284328967    1.61626258530676
