93
 SCF done       -202.392259283444          0.000763760687
C          -1.31297527779748    0.03989800272530   -1.72115441878633
C          -1.67293444723436   -0.54062150701315   -2.90966240590443
C          -0.87220161213145   -1.46976555704619   -3.60876852294320
N          -0.27576101688086   -2.23227831477165   -4.22527241839222
C          -2.85680517503172   -0.28975686513424   -3.63606887703462
N          -3.78119675202148   -0.13668522903160   -4.30055622512493
C          -0.04156849952582   -0.16957483116007   -1.04047522381116
C           0.02362560806107    0.69930481097060    0.07495757543996
C           1.10906976039124    0.75245394326528    0.91562244745791
C           2.18404351293360   -0.09969538307694    0.64471039228013
C           2.10835333863704   -0.97241552405621   -0.46812750933602
C           1.01158842040416   -1.02212715440478   -1.31903343634289
S           3.54061333341130   -1.94414444068661   -0.61626440594502
C           4.21356784878516   -1.17483479782989    0.79666738386581
C           3.40846174598820   -0.23835442207968    1.35306543729793
Br          5.91333901333682   -1.68178636924823    1.40356285138911
C          -1.22004899495903    1.48528392459308    0.16557264470170
O          -1.46893755205731    2.31837493071928    1.00988153230779
C          -2.07668155936908    1.01249690285858   -0.95055189425519
C          -3.38595299660086    1.31505690899801   -1.19949065002745
C          -4.26390801633137    2.24190437605692   -0.59938013744306
C          -4.08555364636437    3.24467538391631    0.34582157347603
C          -5.26331335218559    3.93386434189622    0.60454323782437
C          -6.36053159949405    3.45632462341552   -0.14480690373904
S          -5.93810681749595    2.17457810331917   -1.17202121152214
C          -7.50648822391869    4.21727448300592    0.20091635531180
C          -7.13724274400042    5.17425217290832    1.15955123219130
C          -5.72015668151454    5.02538623396403    1.45322253609229
C          -4.99028267886900    5.75085497450628    2.34609863552658
C          -3.60517331821312    5.56233941927233    2.55079273810123
N          -2.47952661527135    5.44829723770855    2.73204688545198
C          -5.57894602418269    6.74939761400986    3.15372323875987
N          -6.05111660301606    7.54500810227877    3.83041107180245
C          -8.20287035225598    5.99168287426640    1.54373724602926
C          -9.37088079865944    5.64672508056823    0.89674751406921
S          -9.16054531118449    4.29862463077348   -0.20581282893594
C         -10.65820684556617    6.26964312920857    1.04886067934864
C         -11.87283577517296    5.61898235186584    0.90310612864328
C         -12.08561077981058    4.26930826770723    0.61956326551227
N         -12.27600770983446    3.15741808638915    0.40527670239064
S         -13.23090850709844    6.66512809678501    1.18238943138377
C         -12.17950072640701    8.01200059334478    1.48989071768205
C         -10.84337512087507    7.64471420976749    1.37847930223598
C          -9.78061880815210    8.55436873075299    1.49880541352188
N          -8.91046155964372    9.29956191738492    1.56726726374134
C         -12.73884687125704    9.28068130105655    1.80184705770345
C         -14.09128057627770    9.55484063760585    1.93260963599436
C         -14.32321216643455   10.88936302790085    2.25069742321850
C         -13.13538144211420   11.63541561845038    2.35726119287524
S         -11.73897580816669   10.69954915639142    2.07268671462374
C         -13.47478462520497   12.97524152508154    2.67404721466433
C         -14.87459073504822   13.07213361557264    2.78335483689689
C         -15.45441633161202   11.76608269901802    2.51618798174671
C         -16.77495088388925   11.42941270168198    2.51245353801890
C         -17.20753434039329   10.11608016771643    2.22794179910117
N         -17.55118304128680    9.04652221588364    2.00036020392551
C         -17.79188242842054   12.36547388928807    2.80050928778133
N         -18.62012127425786   13.11940291181247    3.04321632136480
C         -15.30147835332539   14.35672934014114    3.10928724227088
C         -14.24751695949017   15.24992780806248    3.20034153687858
S         -12.69374447072655   14.46256754367437    2.94125723384295
C         -14.35242726247683   16.62363385036844    3.53989660672649
C         -13.49834283125092   17.64412738376253    3.27497753283038
C         -12.37924330431773   17.77772070305836    2.36229125114831
C         -12.25332269488830   17.16150504830006    1.14516118666006
C         -11.19941728981409   17.41493094282178    0.24296708202043
N         -10.35681363656650   17.57849508914510   -0.51837567090676
C         -13.21830324310406   16.27920408591072    0.61730937629745
N         -13.99799549209985   15.58478655609881    0.14005855028100
C         -11.58127054199462   18.90786987809965    2.82053823313654
C         -12.30994596209889   19.60439299280903    3.81928893763993
C         -13.57663835740687   18.89653744490984    4.08442836105152
O         -14.47109487485112   19.21686656096227    4.82977916554159
C         -11.83993059891414   20.75567012209471    4.40417027974774
C         -10.59227905348038   21.23513321841117    3.99174779467579
C          -9.86561029918699   20.52185639922642    3.00640819329659
C         -10.34237773474941   19.36135405589219    2.40975094863833
S          -8.34803242375327   21.28713839702093    2.65247949915090
C          -8.70579514318531   22.54232176386707    3.80913173534208
C          -9.89915095949806   22.39473282342824    4.43328263407953
Br         -7.47170352827291   23.92618782450640    4.08303131541280
H           1.12581949703307    1.43075169263731    1.75418299386003
H           1.00340937716796   -1.70684136317434   -2.15017727604891
H           3.66562414944858    0.33182823430492    2.22692712288315
H          -3.86163723554315    0.74425076632941   -1.98864663987119
H          -3.13511085619172    3.43563454390779    0.81153295592808
H          -8.13722704659468    6.78210322776272    2.26858797563561
H         -14.85461577469285    8.80841550232748    1.80131870959879
H         -16.32574194384303   14.65541225615931    3.24085712982289
H         -15.20931895365434   16.88579878985684    4.15438817081525
H         -12.41820746720437   21.27314768065186    5.15332867939888
H          -9.75419718330995   18.84669353685874    1.66790647360641
H         -10.27674110552993   23.07575176887216    5.17387710651912
