101
 SCF done       -213.046563294097          0.000935684774
C          -7.36735693190255   -3.63610608100163    1.81249564102592
C          -6.47322536587222   -4.50310840455098    1.23945194079455
C          -6.77554412082913   -5.84317220786304    0.91336972960016
N          -6.95606384843186   -6.93938358234959    0.62482387181233
C          -5.12371886669600   -4.22860436061369    0.92625671262191
N          -4.01517073231708   -4.11616970394400    0.64778943332131
C          -8.73371712590756   -3.96562946596901    2.19612971718801
C          -9.28275257521026   -2.87195608384248    2.90814931140317
C         -10.56020879594019   -2.88346497816712    3.41300780491534
C         -11.33788818441744   -4.02578197634085    3.19695701177736
C         -10.78309939790620   -5.11204048887389    2.47739915317196
C          -9.48964556912460   -5.10270487676234    1.97233721934594
S         -11.91453831589368   -6.42130589741094    2.32310304602596
C         -13.10037183333675   -5.50640678899886    3.21580879861262
C         -12.67368434149514   -4.28247332419929    3.60917985821242
Br        -14.78755929564285   -6.25406255941409    3.54572586952421
C          -8.27904182603196   -1.78915066820826    3.01648707692944
O          -8.39065756143337   -0.78640613282216    3.67684423019031
C          -7.12076176933294   -2.25308638724028    2.19364444604324
C          -6.04612580382337   -1.52488821580779    1.77838206714747
C          -5.74840687995195   -0.16140624501624    2.00656484436436
C          -4.56262970546864    0.47830952429295    1.56420111450023
C          -4.61632131622522    1.81475641610900    2.01239791614636
C          -5.86762683309081    1.90111703332690    2.71846349537620
N          -6.50757420887265    0.72927161044631    2.68128206296594
O          -6.32902501244924    2.93114184220799    3.37743063087352
C          -7.60894030863992    2.78038459603093    3.99008792889082
C          -3.37902867414740    2.40025228036006    1.61567655128077
N          -2.59887199562809    1.46722840272244    1.00371765905705
C          -3.27761358071161    0.32285671293658    0.95698112017582
O          -2.82732518286914   -0.78719011343225    0.43377312803432
C          -1.50460971955782   -0.76201443975344   -0.08067942505069
C          -2.90554794603660    3.72903200439899    1.75579107235353
C          -3.78514962801861    4.83619898733730    1.86639704160461
C          -3.30319809910824    6.18210789093256    2.04416240190743
N          -4.17699994326697    7.18751749177231    2.17340263316932
C          -5.45978023403935    6.93168183063172    2.15404855937783
C          -5.93601455743199    5.60841559685837    1.87757158615151
N          -5.09556088527378    4.61580696172284    1.72060490209881
C          -7.32181255253266    5.35269987031423    1.74430146200396
N          -8.45009189545729    5.16134742079023    1.68284224958122
C          -6.37467369170326    7.99564285342126    2.35812478059688
N          -7.13664069311036    8.83261028700715    2.53371565000906
C          -1.91691887061911    6.47808734461569    2.03022473443356
C          -1.04160535717865    5.37863601383834    1.91740606697603
C          -1.52444532705511    4.02235668812259    1.77707943323666
N          -0.52298700606515    3.14543306909489    1.74698867127340
S           0.86408088721445    3.93386685453092    1.87926101585351
N           0.28675785884908    5.42331360463504    2.00223790014985
C          -1.42958250915988    7.80973676576147    2.09849997387197
C          -0.24054333441620    8.32125975327866    1.51856412930892
C          -0.21038707079116    9.69815258481947    1.83395823131227
C          -1.41285131909789    9.93536727432501    2.57971936127983
N          -2.10970521955996    8.81001395746431    2.71987791528246
O          -1.79231794765581   11.09341763217635    3.05348476703848
C          -3.04923458919709   11.12074538295399    3.71643410083905
C           0.91788669509228   10.24159309138592    1.18286585476046
N           1.56459320217372    9.25201834376085    0.49587376816106
C           0.88576921920929    8.11701175002941    0.66088629488908
O           1.21188676801973    6.98999201388244    0.07493435910043
C           2.35322732628917    7.01840497113872   -0.76678396344074
C           1.37715478181499   11.57652059358255    1.24943175231632
C           2.43503218509046   12.11835805642357    0.58453872274380
C           3.25047623607271   11.58677599656026   -0.48637121208371
C           2.82763434190519   10.74658827201136   -1.47856540178904
C           3.66786086808202   10.22979087667418   -2.48364352421152
N           4.31309425605314    9.74140133635886   -3.29847536106055
C           1.47649497688652   10.37987850662559   -1.68056674726041
N           0.40033935032690   10.15748872710704   -2.01472362005688
C           4.52926838484707   12.28569116350700   -0.44114633241586
C           4.42215119930011   13.37340286810423    0.46392038097549
C           3.08117773184025   13.36590206201848    1.08376307701451
O           2.61910100467437   14.16170702902336    1.86676086456069
C           5.45690612854569   14.25042534207681    0.68525048013696
C           6.65282432731576   14.03869530593964   -0.00875042752056
C           6.75184395289892   12.94370792737690   -0.90129617800490
C           5.70384272030608   12.06133336335488   -1.13306771061727
S           8.31905422544105   12.86520650079346   -1.64556226691312
C           8.81378264250245   14.28667675727879   -0.76383246430149
C           7.85637305034274   14.79396321292049    0.04830010757292
Br         10.54764262772787   14.96125889379568   -0.99672632479050
H         -10.94831440716499   -2.03567134790629    3.95529251591499
H          -9.11461386002229   -5.95385071296605    1.42938887182762
H         -13.27502115375875   -3.58862999465740    4.16756988941811
H          -5.30417868392395   -2.01811287849542    1.16202171771973
H          -8.36365000055331    3.23409189158156    3.34374816531453
H          -7.56890131304689    3.31487174369095    4.93808935456398
H          -7.83413348446869    1.72302229021843    4.13316755405509
H          -1.24863090662241   -1.79711123932781   -0.29615370435279
H          -0.82163787530824   -0.32944777099012    0.65170720704537
H          -1.46862185744883   -0.16009969773337   -0.99059253201656
H          -3.00465411601077   10.52691977228985    4.63103940626919
H          -3.82815840044526   10.70850394875263    3.07312599790723
H          -3.24736460562051   12.16493114586144    3.94680887439438
H           3.21209173077287    7.43313629596998   -0.23653690181733
H           2.15532279382511    7.62700598692370   -1.65196079875043
H           2.54317575338472    5.98725040505102   -1.05705760334338
H           0.89127256150842   12.20851812172948    1.98446789124170
H           5.34794842313401   15.07491438810444    1.37225770250526
H           5.82282154509845   11.23891332418795   -1.81918793311255
H           7.99124526450771   15.66482780914670    0.66332159155545
