98
 SCF done       -205.558284816539          0.000925952818
C          -0.53799240699517   -0.63424760086173    0.33382991916512
C          -0.75771698757915   -1.89390496825627    0.82992966197971
C           0.19632661783613   -2.93300324825090    0.79625395295711
N           0.92469695640219   -3.82027339069959    0.79831975483620
C          -1.93589537470455   -2.33591467873138    1.46786559554633
N          -2.84814791735367   -2.76908480285957    2.01527025820797
C           0.71958664736701   -0.16274719573450   -0.23267980840269
C           0.60003825848101    1.22016276836009   -0.50933984194145
C           1.62413901846323    1.96439447822113   -1.04235489800453
C           2.82896579965189    1.30998204958843   -1.31726312991211
C           2.93960652045063   -0.07458017700212   -1.04276841752591
C           1.90283236600677   -0.82564047566020   -0.50321393055510
S           4.51109478645346   -0.68499271843262   -1.46311008118670
C           4.99193330595571    0.90564208845127   -1.99193683429774
C           4.02688488760547    1.84699498573682   -1.86232022402550
Br          6.72108040335667    1.17239081650454   -2.66619154928277
C          -0.75161966588382    1.68436284587567   -0.14572311714650
O          -1.17472909775400    2.81150675499086   -0.28787101668716
C          -1.46823099469048    0.48283846426559    0.34684876288771
C          -2.80330713553074    0.36597799984173    0.62447867880648
C          -3.79497376931476    1.35561525200069    0.76795184592165
C          -3.72561791911699    2.73453348997419    0.92892776686892
C          -4.97926946082650    3.30811837588771    1.08157051575457
C          -6.03247861396895    2.36577607922928    1.03218319912103
S          -5.46820646587668    0.77688781641615    0.82933323286166
C          -7.25981710320295    3.05788195475100    1.16106762201256
C          -6.98990114233214    4.43119886291658    1.29899942201926
C          -5.54976627918297    4.63319786342068    1.26731571178216
C          -4.88513199664069    5.81550672041006    1.40270184697077
C          -3.47584874981660    5.90927248737110    1.40822074058981
N          -2.33520183406762    6.01710779242905    1.43491148876985
C          -5.56519633198744    7.04119260189493    1.57363216502923
N          -6.10791836716339    8.04232958388076    1.70659603496252
C          -8.14264175027574    5.20258142134571    1.42600701412015
C          -9.29482512054371    4.43999734832362    1.38263267664756
S          -8.93252377575638    2.72511209043326    1.18468893479527
C         -10.66124799177190    4.87065204158388    1.45928055741237
C         -11.69909842929159    3.96771275649695    1.26873610580923
C         -13.02974440349019    4.34629393323005    1.31254035358070
C         -13.42450382049638    5.65633709093879    1.55131251140339
C         -12.38960188810984    6.62080636623711    1.76650642090842
N         -12.70770991993736    7.90611918218191    2.00209400200838
C         -11.75190949356311    8.77196619627637    2.20435543976569
C         -10.40189171314650    8.38252626319353    2.18492329002386
N         -10.05946695858324    7.14535038865437    1.94790113159767
C         -11.01936396040004    6.23008558373847    1.72528818257289
C         -14.81537526325541    6.00720133113448    1.57229322374700
C         -15.39961193141722    7.22557699398953    1.86280011720707
C         -16.78919193221798    7.18243795476631    1.77487393209884
C         -17.27954410617776    5.91493471487840    1.41233588648737
S         -16.02645712845687    4.78307338005825    1.18506623127246
C         -18.69422232806814    5.97395003557384    1.35615027512785
C         -19.09546985183171    7.28587363850876    1.68262966779924
C         -17.91357058691248    8.08297903583511    1.96498332111330
C         -17.88252775665413    9.38851536171281    2.35820494588605
C         -16.67545973515722   10.07280528833337    2.61451941892298
N         -15.69973666510213   10.63812683029441    2.82067767030993
C         -19.07142345701681   10.12918573450107    2.52892859306235
N         -20.04792308036496   10.71684414628557    2.65594751836498
C         -20.47391158112103    7.44429826232845    1.68779735669909
C         -21.13979783638512    6.26754314523862    1.37413042648234
S         -20.01714427138641    4.95498288804156    1.03273228954954
C         -22.52794382114660    6.03802903682061    1.26386573549205
C         -23.55556727876262    6.77856428473123    1.76492404881088
C         -23.63301462648580    7.83249053335441    2.75520366189947
C         -22.82217410364704    7.99816515712717    3.84837288600575
C         -23.04437189990476    8.96409929856810    4.85249342707076
N         -23.18322687414523    9.72654749674043    5.69837130824935
C         -21.73157985854662    7.16217503319799    4.15589362751067
N         -20.85182915113337    6.49108090890299    4.46296269808259
C         -24.90208741936141    8.52334820160601    2.55018954203652
C         -25.68891707550999    7.77286493903070    1.63998937910027
C         -24.91435693012364    6.60634244418547    1.17627368909938
O         -25.27226740052317    5.71756923596952    0.43879798895942
C         -26.96053646567768    8.14990013318003    1.28147639592290
C         -27.47254804611602    9.32757170765965    1.83637761466614
C         -26.66983235570130   10.08006627974401    2.72796126838217
C         -25.38705000281222    9.69493611946740    3.09812517857554
S         -27.49265329432227   11.50553429416990    3.28119176770425
C         -28.88745762547802   11.07562422682222    2.32714487585483
C         -28.74518608161202    9.92530787449543    1.62650520731148
Br        -30.39787585218371   12.18611806362148    2.34433505474719
H           1.49851542986390    3.01778375673354   -1.23765449225292
H           2.03730152348947   -1.87782889550347   -0.31693979256508
H           4.15246350841878    2.87781751504870   -2.13899864982260
H          -3.18496756887750   -0.64189464003228    0.74023457982776
H          -2.79627422307546    3.27343074360897    0.92221863954044
H          -8.17503398052115    6.26923035682617    1.54566335883870
H         -11.46376633969771    2.93154590553125    1.07233107610881
H         -13.78613591210230    3.59156398434223    1.15207395584243
H         -12.05657286896963    9.79276047636848    2.38843987573701
H          -9.59564398544333    9.08077926583456    2.36114474850855
H         -14.81343435097475    8.08746465748948    2.12164797695671
H         -20.98216480220471    8.37429032210360    1.86610813620465
H         -22.83032190537621    5.19810525569462    0.64568288504334
H         -27.54270871007564    7.55607893440307    0.59455157128637
H         -24.80706523164087   10.30295817127307    3.77249238414922
H         -29.50511563696035    9.51398663913558    0.98761556520934
