94
 SCF done       -203.784515816129          0.000803243066
C           0.89155637115853    4.20217320724108    1.95064274060636
C           1.39362979886675    5.06315373818791    2.89221706360147
C           2.76863127015693    5.21328663486034    3.16953181408717
N           3.87261493566866    5.38268276083138    3.43409670723409
C           0.61784170576830    5.88017879484080    3.74155466336434
N           0.05250901890233    6.55439176530566    4.47963142291146
C           1.67525577881507    3.27134794416242    1.14965197722692
C           0.78658738174317    2.43384391672230    0.43289656606979
C           1.22038648382208    1.44152124556969   -0.41219908165848
C           2.60046040930225    1.27016988069078   -0.56062026046109
C           3.48229883225625    2.11643686241878    0.15441409287127
C           3.04241685520106    3.11724259599366    1.01184780505013
S           5.14389102704569    1.73986695690937   -0.18442714106536
C           4.63951072824809    0.46766883265107   -1.26530201429066
C           3.29608442471353    0.32995086561041   -1.36850509257555
Br          5.93347943883225   -0.55498321447045   -2.15694607048563
C          -0.60697797328069    2.81326709548223    0.73440777787595
O          -1.60112783121555    2.30042966184258    0.26836294287197
C          -0.51113083936242    3.98214073878714    1.64379751065980
C          -1.51859062775895    4.84143385959543    1.98577212116988
C          -2.91204896933081    4.69355595052470    1.83615907927996
C          -3.70829204469585    3.57250072732730    1.63706456846654
C          -5.05886687906429    3.89015743038388    1.59987879395173
C          -5.30918325390324    5.27149476113993    1.76234603692504
S          -3.88353859500601    6.16371627410187    1.99966049036699
C          -6.70436285681588    5.48885331587626    1.67086606232334
C          -7.34096472992032    4.25121159001937    1.46559675251048
C          -6.33014305203463    3.20514524222231    1.42553143952181
C          -6.53931807479248    1.86702610501631    1.27312384384472
C          -5.49094219419000    0.92075935088994    1.29269024004365
N          -4.66173249619111    0.13038407117384    1.32643456853568
C          -7.83274181588182    1.32550068539272    1.10637112433279
N          -8.87893287904555    0.87775063039150    0.96784248375409
C          -8.72566926228829    4.36542995556827    1.36004428558977
C          -9.14772856083646    5.67763892317822    1.47204552287832
S          -7.81024110567526    6.78874149085991    1.72312341901227
C         -10.48904377699950    6.16279979175762    1.38810427355772
C         -10.80216906215998    7.52163371435665    1.40584483591151
N         -12.01372972378940    8.03616213302697    1.29767593719236
C         -13.08074711865229    7.26063255445893    1.17105454823311
C         -12.92581530143537    5.84773598041389    1.16152763654670
C         -11.60470671457886    5.29282847272840    1.26394742074240
N         -11.62836222469711    3.96094367006235    1.22960501770527
S         -13.14792403696040    3.46428723407344    1.08450225069688
N         -13.85792168940304    4.90316906201769    1.05690576293462
C         -14.34325494164722    7.90638422419837    1.02890703034678
C         -15.60103586091270    7.34395453987894    0.90841161252096
C         -16.58264175276801    8.32171648583974    0.76782132233644
C         -16.05480617100444    9.63022088356337    0.77739927282677
S         -14.36053389680928    9.65510369857424    0.96994228483526
C         -17.12309557714454   10.54553801193207    0.60354173209436
C         -18.32429656326993    9.81568628266895    0.49337164883105
C         -18.02241603376006    8.39681771222063    0.58717144795430
C         -18.91045495735539    7.36630345485444    0.48838158389526
C         -18.51555422825514    6.01490300110035    0.58214923005524
N         -18.19917915452375    4.91626412652516    0.66774700301945
C         -20.28675419873553    7.60303669956603    0.28596757736106
N         -21.40216850292664    7.81476331881272    0.12523244942384
C         -19.43178322613184   10.62440294649784    0.27886727075868
C         -19.09408277063035   11.96919844872213    0.21201346611062
S         -17.37028884826023   12.22195647466969    0.46420607466684
C         -19.92997393783619   13.08998379926885    0.01728439653479
C         -21.19642531735045   13.14329847782254   -0.48009812507486
C         -22.03184006356292   12.20230553971379   -1.19746839780777
C         -21.61631747857441   11.22075464955657   -2.05974107308660
C         -22.49396522426479   10.43120713441856   -2.83285633069957
N         -23.16387342882131    9.76630501469332   -3.48506948214355
C         -20.26624919434165   10.95209918473416   -2.35611203331754
N         -19.18076226017102   10.71794375961385   -2.64821961096339
C         -23.41026116288500   12.66462647792374   -1.06733203033315
C         -23.40388811955254   13.97014584302052   -0.51360516125184
C         -22.01600025589476   14.35846017452475   -0.20236020630414
O         -21.61418219964574   15.41304334114512    0.23096352476779
C         -24.55623546815746   14.69071631698620   -0.31208366606542
C         -25.77042319000072   14.08964775653596   -0.66013355675939
C         -25.76680426273065   12.77714792305228   -1.19233170125829
C         -24.60107961553528   12.05124673172132   -1.40514285570760
S         -27.37589322679485   12.22252490853571   -1.53598736805807
C         -28.02375392532131   13.74163247819107   -0.97616865659580
C         -27.08483077274212   14.61954720312532   -0.54925574744087
Br        -29.87690981173681   14.02376458437135   -1.00434416371053
H           0.51660335717840    0.81813005095109   -0.94095506365719
H           3.75316340024695    3.73920835722898    1.52976648230595
H           2.81366838194822   -0.40293361616027   -1.98905007616257
H          -1.22439689299471    5.79472949829389    2.41007849769855
H          -3.30445695252553    2.58375122279036    1.52549208896976
H          -9.41603227314947    3.55630867420038    1.20641229100803
H         -10.00965447789223    8.25261790015729    1.50458120126564
H         -15.76011647932421    6.28097180323695    0.92275613905160
H         -20.44456654796477   10.27082199927908    0.21498791896691
H         -19.54117803537510   14.04233708166795    0.36583609173695
H         -24.52286455248475   15.68659002215175    0.10088800968901
H         -24.64544299102799   11.05120828330126   -1.80367166688437
H         -27.30808110696460   15.60045385330919   -0.17128261629016
