91
 SCF done       -201.799676993656          0.000930923715
C          -3.18989827439665   -1.67579991234987   -1.87610207417859
C          -2.96531122330735   -2.64064545809900   -0.92851517248082
C          -2.27520884228774   -3.84558802580045   -1.17802898785360
N          -1.72986412339909   -4.84486918853319   -1.32310258673931
C          -3.35555332721022   -2.55497340170045    0.42466226565610
N          -3.62390396296978   -2.54599686639867    1.54108082643448
C          -2.70288326611677   -1.70523454087891   -3.24907906232509
C          -3.01542502127661   -0.46973265743448   -3.86620655803974
C          -2.67910763077783   -0.18120126324767   -5.16656791031227
C          -1.99953292561026   -1.16191856332709   -5.89555703784130
C          -1.69563288956494   -2.39752218697800   -5.27372486774415
C          -2.03624958594864   -2.68768625469963   -3.95827851408765
S          -0.86063376206996   -3.46823707738487   -6.35707194539688
C          -0.92716211303250   -2.25858729561293   -7.61157521662127
C          -1.54346342522842   -1.11086797822648   -7.24071875350160
Br         -0.17987600569275   -2.62576850725220   -9.29123876959302
C          -3.73222191887084    0.39610393811333   -2.91274810508580
O          -4.17416830452916    1.49990820668559   -3.14689435254768
C          -3.87165807472229   -0.40936539286476   -1.67179815360303
C          -4.67488266467260   -0.11461171639933   -0.60570033821834
C          -5.27830010339984    1.12121251817367   -0.28896710501257
C          -4.94241005867652    2.41584054582747   -0.65993416146165
C          -5.80979026587224    3.35548270275331   -0.12041489025967
C          -6.82352237585273    2.78339542636316    0.67931698590261
S          -6.67529086526859    1.09338346539252    0.79426799315838
C          -7.68497602341800    3.81863352189086    1.11943574300748
C          -7.21821910002787    5.04053945314882    0.59883396393150
C          -6.00932027617063    4.79349276053040   -0.17247451596404
C          -5.22334144981040    5.71896476027571   -0.79119510584849
C          -4.03626441631151    5.37651135596192   -1.47541085517146
N          -3.05764173466703    5.12204595830682   -2.01464226195128
C          -5.53234426967979    7.09632616178728   -0.76193271532778
N          -5.78409170056825    8.21418189876184   -0.73429682050797
C          -8.02548238083084    6.11959138840487    0.94523464306818
C          -9.09813297974685    5.72750063593521    1.72874764422417
S          -9.10583381599858    4.00338336256901    2.04994938462672
C         -10.11980325235961    6.57795897109696    2.22469758674152
C         -11.16776939411419    6.27888445662898    3.07464780525845
F         -11.36004466750604    5.05801019851162    3.58530027075713
C         -12.00199752247052    7.37088845539811    3.34908891006002
F         -13.07307366055279    7.29778638355132    4.14643091558246
C         -11.62492058618748    8.53557886643616    2.70753235563158
S         -10.19291235876365    8.25332074458157    1.76092275326435
C         -12.24131849556150    9.81312572041453    2.73776084952575
C         -11.87400153946025   10.91068239868154    1.97649917096881
C         -12.68227766308709   12.01263433607270    2.23790416554368
C         -13.66411156542364   11.75183275479243    3.21161758334590
S         -13.60087100199916   10.14778788286051    3.79358055180082
C         -14.41423757235582   12.93560934315200    3.41918830587640
C         -13.91730468424807   13.94034241907849    2.56497578923876
C         -12.81677991891187   13.39149175112905    1.79148641671026
C         -12.07509690566150   14.02443296131000    0.83928623742333
C         -11.03388072970002   13.37066507967003    0.14534185087584
N         -10.19476098860794   12.83532008700280   -0.42320759366389
C         -12.31090307981779   15.36665794381188    0.47092429868991
N         -12.50554936887474   16.45305807727630    0.16197157501074
C         -14.59997787066125   15.14470148035116    2.69513065291623
C         -15.58164895875239   15.08975685496393    3.67218418526883
S         -15.69847816426800   13.48416576977585    4.39108408748254
C         -16.45705026804852   16.14859211300937    4.01146484980261
C         -17.20496811607044   16.34037885563738    5.12989748945269
C         -17.18107884981829   15.73772855405142    6.44674509841264
C         -16.07110755265078   15.26736404087063    7.09920985489996
C         -16.08548314619366   14.78342421033390    8.42304062737318
N         -16.05317072816880   14.36285540971654    9.49014419957787
C         -14.77344451927890   15.31091734476385    6.54980052324100
N         -13.70005460924615   15.37526269711728    6.14781763269061
C         -18.47183486073218   16.00777628141509    7.06922771378325
C         -19.16826583630711   16.95584009439479    6.27635887402006
C         -18.36973736301940   17.26993277797854    5.07571080795442
O         -18.61756092312031   18.06651879506552    4.20180403582304
C         -20.39683361864573   17.45501391002931    6.63555598761625
C         -20.96794851264981   16.98972878093069    7.82469742107992
C         -20.27112495887864   16.03103693485861    8.60029399567246
C         -19.02496457464840   15.53149301101771    8.24216295917625
S         -21.16356991048676   15.58954994944751   10.02300010834729
C         -22.44008752275986   16.68748424364875    9.56868991931466
C         -22.21291936000924   17.34935254276651    8.40897576922118
Br        -23.95090194015356   16.85380229751944   10.66606825905663
H          -2.93013709109271    0.77216758813292   -5.60426874462092
H          -1.78684384827443   -3.64507541118498   -3.53237963007995
H          -1.67240534041705   -0.26238712852869   -7.88754685137080
H          -4.92399947706226   -0.92223422040945    0.07266773355289
H          -4.10363416639961    2.64776782124130   -1.28785089594637
H          -7.86446928422765    7.14171849833796    0.65326651290589
H         -11.05949140616954   10.88284042502958    1.27524185694713
H         -14.38587768798556   16.04145079416384    2.14222340044111
H         -16.60534020807230   16.88935031423335    3.23028311875920
H         -20.90048012498223   18.18427892515280    6.02079662332698
H         -18.53157513023205   14.79894940424917    8.85951431575502
H         -22.89394109564779   18.06255713240876    7.98188984976318
