97
 SCF done       -206.009761241295          0.000721727278
C          -4.61221092898788   -2.99415497693041    4.39703159025578
C          -3.29094464310732   -3.16394589996739    4.72488816219561
C          -2.69009625384139   -4.41866242382245    4.95920076627218
N          -2.14034039974106   -5.40574391794933    5.16271412008911
C          -2.33821526401831   -2.13497524929955    4.87482352522856
N          -1.49972007747480   -1.36215988735712    5.01486288685167
C          -5.58404156305599   -4.07348091700642    4.24019698602367
C          -6.83717314208487   -3.51005027224359    3.89410676198067
C          -7.96099381080904   -4.26853240814034    3.67594472749070
C          -7.84385327028310   -5.65660962415058    3.80423937776856
C          -6.58923521774486   -6.21295647659885    4.14925213757529
C          -5.45297392104464   -5.44313305561918    4.37080986794857
S          -6.66604953202462   -7.94527291491376    4.25329383005879
C          -8.35873755607839   -7.89954276072566    3.83766418078308
C          -8.84386226827806   -6.65190168127426    3.63133431037486
Br         -9.32560713023516   -9.50155078767297    3.71456006231710
C          -6.70019784512647   -2.04672332728117    3.81818549257029
O          -7.58595160927476   -1.25372829974454    3.54462555623724
C          -5.30247615801282   -1.74547354608973    4.13687311214135
C          -4.75133296503318   -0.48789947993752    4.18154973134885
C          -5.33386733118120    0.76193818512771    3.93015605737248
C          -4.59744659959662    1.95022487142822    4.00797582915673
C          -5.33609827986902    3.07964774411954    3.70187262894530
C          -6.67221865085006    2.76272831726502    3.39971496816517
S          -6.99391980430402    1.07279448475216    3.47458321940400
C          -7.56037150067695    3.81618509061869    3.12515776355156
C          -7.07453286517287    5.11972571707926    3.02041245327327
C          -5.59883468128308    5.36927496348016    3.10756320226983
O          -4.85604999571037    4.33733987478807    3.75316309616146
C          -8.07112383377262    6.05103045495945    2.77584661369911
C          -9.33517746563509    5.47335330246759    2.69185931909025
S          -9.27260081601507    3.74293294651125    2.92717290900499
C         -10.54712422474625    6.13687346546861    2.44346148070941
C         -10.73130567963782    7.50768761073512    2.20031008861120
C         -12.10761899839124    7.84928919637648    1.96710224430578
N         -12.48633228965971    9.09884959050338    1.70556684121872
C         -11.53991392208703   10.01369163935946    1.67386533987111
C         -11.95151709206460   11.40757707238554    1.37521707473353
O         -13.10133552141850   11.71704171435836    1.14410299840693
C         -10.85541608896527   12.39240128944031    1.37627255184193
C          -9.57548240634445   12.08044064988828    1.60635576142255
C          -9.10736032047925   10.71347461019025    1.88722456055499
O          -7.93749812118663   10.45255019827812    2.08242454425574
C         -10.16990773410437    9.67894262850385    1.91408275985840
N          -9.78396244160172    8.44534849968038    2.16957756988880
C         -12.97461266066017    6.75224849938507    2.03782957232293
S         -12.07662925186582    5.30807947808088    2.38663910212822
C         -14.36415542310005    6.79094113327228    1.85263000064229
C         -15.26145095790917    5.73407711352199    1.92605437614916
C         -16.57313475152227    6.13575540192401    1.70096650943854
C         -16.67758752518079    7.50985515975175    1.43338222998553
S         -15.14376670387184    8.30673083489114    1.49211176287444
C         -17.93997766932347    8.03357839870348    1.09805510972647
C         -19.06195719896839    7.20749604245659    1.19734888448964
C         -18.92350736960601    5.83230623164586    1.77496772089562
O         -17.61395529304513    5.28260840781360    1.66842909842730
C         -20.22885546382004    7.83889715382890    0.80839915943312
C         -20.03371956582196    9.15708291884024    0.40300423947209
S         -18.33982060354780    9.58850683474999    0.48639975051502
C         -20.95835944296341   10.08983854128580   -0.09915772250290
C         -22.32422014978039   10.08448695238251   -0.03514420521350
C         -23.27605218117041    9.36470873744322    0.77600549262411
C         -23.07779742517371    8.88303818484217    2.04699561050370
C         -24.08130400025308    8.26605735242867    2.81995872260843
N         -24.85434304402792    7.73251601395017    3.48068854842353
C         -21.87263971744576    9.01688418690075    2.76227338510995
N         -20.92329786741725    9.11938967925556    3.40028427087476
C         -24.57722045079367    9.47259875070724    0.12038167666505
C         -24.47797912312697   10.41541679590699   -0.93326229021780
C         -23.08478301724246   10.89810603346612   -1.02119817425840
O         -22.63705365094384   11.74080104422054   -1.76461933484666
C         -25.55143764326689   10.76134942570905   -1.71679695776535
C         -26.77742867219170   10.13916130225460   -1.45581478021635
C         -26.86230955389779    9.18919075748193   -0.41037406279785
C         -25.77816334331192    8.84534426992913    0.38858138521959
S         -28.46543568705730    8.53530780050887   -0.26899221333368
C         -28.99489253781904    9.53644512316324   -1.59501007381411
C         -28.02215334948945   10.31920207145673   -2.11918287810175
Br        -30.78023629772813    9.45083194837804   -2.16256007522269
H          -8.89981760983727   -3.80638292110249    3.41413394819643
H          -4.52201540991614   -5.91759938748260    4.63157990557448
H          -9.86414091410335   -6.44066454814313    3.36794744558628
H          -3.70326555602507   -0.42066131286709    4.44567452104931
H          -3.55824046036266    1.97245112909012    4.28041351258346
H          -5.39198818457664    6.28216400034938    3.67354046377142
H          -5.19453381201698    5.50046906360734    2.08978366229061
H          -7.92363881381504    7.10878055796063    2.65341729931882
H         -11.15723097216988   13.41062864302673    1.17078169319774
H          -8.80146092613146   12.83602427398719    1.59474808402688
H         -14.96773037895517    4.72181689459029    2.13334603357597
H         -19.58313024983469    5.12134659196751    1.26925957248228
H         -19.20400364981129    5.86531859408658    2.84148427087953
H         -21.18713064682483    7.35234236675389    0.77851807879022
H         -20.54172046420766   10.89852498705634   -0.69235877351042
H         -25.45030044913254   11.48879797812010   -2.50673166437965
H         -25.88914406013299    8.11194567137471    1.17006739173804
H         -28.17378962787651   10.99599262601505   -2.94007834676606
