91
 SCF done       -203.241393868180          0.000946428454
C          -0.08854347618515    2.37023261196389    1.36001212875424
C          -0.00899696895097    1.35891574738146    2.28202590693906
C           1.10055121385661    0.49646127625422    2.40997190511440
N           1.96872510836497   -0.23894274765609    2.56249740562291
C          -0.97708340348519    1.05420185005516    3.26303202465929
N          -1.69659714330763    0.74917449336214    4.10466491215111
C           0.97037269044830    2.73942291501157    0.42871763442416
C           0.59803659167761    3.93969946206652   -0.22184632910163
C           1.39218623604762    4.55439779993222   -1.15915405229394
C           2.61166680803032    3.94857529847472   -1.47775522859082
C           2.97360420824646    2.74419947261144   -0.82771100934758
C           2.17271995159869    2.12744109995680    0.12550092420995
S           4.51514604550210    2.16053880394495   -1.37689779657763
C           4.65062992311729    3.52277712306177   -2.45689679925879
C           3.59754505740105    4.37301828073755   -2.40988309041520
Br          6.16799279207425    3.69305326046392   -3.54550587677720
C          -0.72844360248791    4.37349819732506    0.25797465374005
O          -1.29412421040903    5.39502575860683   -0.07031107162611
C          -1.18641491491353    3.30914720761871    1.18238021652207
C          -2.43881363936645    3.10905957528896    1.69701251203591
C          -3.60967364062535    3.88870619227446    1.62611429881765
C          -3.87171736878871    5.16655633529740    1.16077337641474
C          -5.20460006729705    5.52930906201474    1.29744324863383
Cl         -5.79374898496709    7.05641727333647    0.80052585664053
C          -6.02431396201034    4.54988702622384    1.86950467863005
S          -5.06983162304159    3.15513529966794    2.25669860920514
C          -7.41559722275946    4.60602543523563    2.09760166890138
C          -8.23014459935266    3.61171013272065    2.63787657471479
Cl         -7.63826731340929    2.09673727712597    3.17738001811692
C          -9.57674598817577    3.94906094296173    2.69478395454329
C          -9.83357552195015    5.21676606577848    2.20347966994452
S          -8.38107819794730    6.00457205153111    1.67609545874808
C         -11.09252641407537    5.85832285095804    2.07291120430192
C         -11.16882470411862    7.16721848921594    1.54335062798386
C         -12.41392134761282    7.83414189321824    1.33066322512569
N         -12.42375700146643    9.07732292625129    0.82068227050112
C         -11.29252041052542    9.65279965962482    0.52334615491385
C         -10.06283076915615    8.99098827075258    0.72620381986037
N         -10.02007722326423    7.78642009512590    1.22263201301517
C         -13.65702606028803    7.22640277873240    1.62160589355648
C         -13.59008001202293    5.93352809481220    2.18439718509931
C         -12.32638869176063    5.26115969449096    2.41063294779820
N         -12.50582554417873    4.05046338470744    2.94291971511996
S         -14.07382127549978    3.78463012340450    3.14004123425566
N         -14.62127178980437    5.17600784106282    2.56414400405381
C         -14.86617999554283    7.90158497611244    1.31332201142770
C         -16.15924601636108    7.43656278503630    1.47460655746714
C         -17.11454139479092    8.33698297696493    1.02001054936115
Cl        -18.79525122805566    8.00540721437002    1.07909528783099
C         -16.58594747705439    9.51823713874278    0.50427550865753
S         -14.83910248595786    9.48382999357637    0.60233151056258
C         -17.28953298005253   10.59866579461182   -0.06821703975776
C         -16.77755371211100   11.78500557330913   -0.59122916464324
Cl        -15.10968818174460   12.15757308353415   -0.59415669932969
C         -17.74057554998192   12.64796999696412   -1.10701259248954
C         -19.02102251222554   12.13486101754250   -1.03944145357840
S         -19.01857563180141   10.58288985715945   -0.24561400532688
C         -20.20774404720272   12.78075315258423   -1.46249829117338
C         -21.42029214934762   12.23399097935573   -1.74420625020486
C         -21.83914043612869   10.86663998419117   -1.97885141748755
C         -21.09470964550947    9.88627530713338   -2.57994142651679
C         -21.58272320111028    8.59641945525109   -2.86945644398527
N         -21.92885772746793    7.52887878806593   -3.11092940648768
C         -19.78815601556019   10.09725200790792   -3.06853867049084
N         -18.74712219469236   10.24154111761949   -3.52972824434065
C         -23.27877567739105   10.81264887377147   -1.75476741073470
C         -23.77040560868397   12.13880637072736   -1.64571556821938
C         -22.64077067731700   13.08725041169867   -1.72295974223351
O         -22.68114882871690   14.29541725839628   -1.71975296375560
C         -25.10671148187724   12.41632529492012   -1.48726317848807
C         -25.99465711013054   11.33716907622572   -1.42246570501220
C         -25.49026992030926   10.01724497376658   -1.51575568974337
C         -24.14029881884840    9.73513014855038   -1.68463247226666
S         -26.76052850838614    8.83805872630603   -1.40396973699481
C         -27.93711321666089   10.11476904494876   -1.24105252717838
C         -27.40777926014457   11.36105692789456   -1.26648545183261
Br        -29.75182898118628    9.68146380383925   -1.05514096340145
H           1.07992428712122    5.47131030448407   -1.63388833387829
H           2.49196486140463    1.20885455053766    0.58831610637616
H           3.51690300807755    5.26226006907601   -3.00795358252349
H          -2.59101169822678    2.17628366869329    2.22837542789460
H          -3.12020261994087    5.80330084406866    0.73148707936220
H         -10.34747598961999    3.30331199423674    3.07162677917090
H         -11.34296992302050   10.65322473823136    0.11869337044588
H          -9.11782958153649    9.45412306475774    0.48204022834087
H         -16.38437804748607    6.47624163207609    1.89914340332745
H         -17.50634628499644   13.59656415291088   -1.55408606957731
H         -20.16646348315309   13.86531237395886   -1.49929847853087
H         -25.45772949160627   13.43388142779010   -1.41735219687660
H         -23.79740670396772    8.71543282128053   -1.74671961591166
H         -27.98827119407307   12.26131956281253   -1.17983970677439
