91
 SCF done       -196.763920454548          0.000913505000
C          -6.86643586822573   -2.40709342905128    1.17876667461024
C          -7.23311058264047   -3.23745231521865    0.15382831090748
C          -7.13651959015317   -4.64458610244149    0.20179181502174
N          -7.08696014837294   -5.79099678214951    0.18513294253131
C          -7.74480280948132   -2.81443298836693   -1.09188076425992
N          -8.15627501837115   -2.55271756662703   -2.13125595914335
C          -6.28550785984765   -2.82524922732555    2.44760298543497
C          -5.97216995862502   -1.67355134492521    3.21007479703672
C          -5.41154289839202   -1.74290759135522    4.46242997735173
C          -5.13887104925039   -3.01008695594348    4.98667278343223
C          -5.45564443431018   -4.15666183332259    4.21840226143637
C          -6.02725596445575   -4.08666069531371    2.95464988971244
S          -5.04420754152053   -5.62122089188944    5.05831772060905
C          -4.46029888650126   -4.68693443994507    6.40995241990197
C          -4.56641853655043   -3.34707494217857    6.24345381592835
Br         -3.76732613545349   -5.56765959819660    7.91305648055984
C          -6.36674858756089   -0.46124170041808    2.46755307663479
O          -6.34428257723514    0.67248040744334    2.88836693357869
C          -6.92169137955956   -0.95346977631480    1.17355447500194
C          -7.52094729998269   -0.16410122237179    0.24980976179597
C          -7.42233607833990    1.26987621439884    0.22339706747688
C          -8.52072959346954    2.07579033823535   -0.06931785994359
C          -8.46946300710752    3.49205409185348   -0.04685099186749
N          -9.67270378742521    4.09287195913310   -0.26791183100519
C         -10.59832408389329    3.24652729910112   -0.47355236632149
S         -10.14128316614000    1.55722659637907   -0.40499970175281
C          -7.27168172568506    4.16452163164462    0.23541582862628
C          -6.15966512627543    3.36258593280106    0.47218962337085
C          -6.21266000402472    1.94629414180561    0.45660643325554
N          -5.00812329328546    1.33740585848358    0.62464839503876
C          -4.07024483948781    2.18706527284642    0.78375996183489
S          -4.52269302688238    3.86809458380463    0.74658929777451
C          -7.23477714418177    5.61784118410687    0.28890378411517
C          -7.85290721157678    6.40350636299297   -0.69876331027478
C          -7.96726446769085    7.83013082626416   -0.56053908523035
N          -8.55724993299135    8.55730982152672   -1.53790474497837
C          -9.06605862771823    7.92556240202896   -2.55054362319025
C          -8.94448114973891    6.52043896269456   -2.69202917045555
N          -8.32548653924635    5.79581046675965   -1.81168111068470
C          -7.45465186768745    8.49964991235086    0.56207755017818
C          -6.75877563978784    7.72999232695845    1.50040487168112
C          -6.65428457209084    6.29386616804510    1.36757910908808
N          -6.02528683101500    5.74936773473355    2.41788326205319
S          -5.60841395203801    6.90790197680955    3.43523681101309
N          -6.19630091765662    8.16058724120269    2.63781236939154
C          -7.72333822285442    9.90826680417590    0.80638386766729
C          -6.74671944152199   10.80795765727086    1.21847121497025
C          -7.02956727031076   12.15332044050154    1.55829689155921
N          -5.93405459642005   12.88215763366824    1.90990594149692
C          -4.86459876816401   12.18434731162806    1.85349914303083
S          -5.04104413984056   10.52418121347735    1.37327387996300
C          -8.34287480821395   12.65644776760208    1.50069160985267
C          -9.30517107023062   11.76971554944714    1.02046245028714
C          -9.02369650237505   10.41770084289763    0.69812996185870
N         -10.12166239491379    9.69141356451877    0.34804171342353
C         -11.18197610753502   10.39205505669789    0.36666904544956
S         -11.00237236818291   12.06726155795146    0.84048342010017
C          -8.68519330846360   13.99490027918718    1.89198531997074
C          -8.11324490837021   14.74165687736340    2.86319667150179
C          -7.14725734376568   14.40507502015967    3.89317959226490
C          -7.01610841449989   13.19528329271786    4.51860970339057
C          -6.07328696463884   12.93125287989662    5.53222720739355
N          -5.30294069904781   12.65590489770924    6.33766439637790
C          -7.84863673948469   12.08605009661341    4.26306222129571
N          -8.53026774767899   11.17161623523744    4.13320646428708
C          -6.51898050016706   15.64987124319948    4.31281947367329
C          -7.24430773613273   16.73690613146860    3.76049332950263
C          -8.32589518285174   16.21738482245929    2.89921412695092
O          -9.17424198709244   16.84379595781366    2.31045283382588
C          -6.92065870225965   18.04636438510278    4.02282281127593
C          -5.82435662293779   18.29429825141462    4.85547556256095
C          -5.09604862247079   17.20177481986109    5.38597626862497
C          -5.42877324646022   15.87753001149988    5.13108277803475
S          -3.77364784282782   17.73674788020954    6.37737121568956
C          -4.21252431953425   19.39726880222757    6.07457701444626
C          -5.29273139901345   19.54575263359534    5.27159824099414
Br         -3.20375239742896   20.77562433713998    6.84766885325780
H          -5.18988606483873   -0.84571766457469    5.01875846304680
H          -6.25581553489579   -4.98921848940274    2.41299511345714
H          -4.25590397342671   -2.62468565828733    6.97607309056291
H          -8.15368834665229   -0.60283999168249   -0.51240818426116
H         -11.61738927764991    3.51441026992787   -0.67249507675387
H          -3.04495038576466    1.90925483004665    0.93380878645905
H          -9.53156235535364    8.52849702835432   -3.31865762508714
H          -9.30889655088288    6.01153953250534   -3.57430455512036
H          -3.89639930581665   12.57926042319162    2.09379561654084
H         -12.15277122512540   10.00951873223979    0.11908170427442
H          -9.47384976628205   14.47488848327213    1.32024843596221
H          -7.49429903575944   18.85548136425501    3.59872245294919
H          -4.84562215053445   15.07566016666046    5.55286037203105
H          -5.69971193947913   20.49780640766422    4.98368721372884
