107
 SCF done       -213.047905421148          0.000911072614
C          -0.40304490202656    1.28163919916840    3.00101912505195
C          -0.15593717710316    0.07751588460804    3.61253937352020
C           1.12426786156353   -0.50280741409734    3.72879879576400
N           2.13440040707185   -1.03428240920279    3.85373410240551
C          -1.11969937485974   -0.75427771181425    4.21808690183462
N          -1.84046923578373   -1.48725326007575    4.73184505213011
C           0.61327822713367    2.14124905279942    2.39987461810105
C          -0.01634502221827    3.30565142127817    1.89491457303990
C           0.67416960372892    4.31330323544362    1.26764958686676
C           2.05873844847699    4.16603161659820    1.13113128827343
C           2.68106526755505    3.00090361355534    1.63879369998573
C           1.98032880730993    1.98170887038490    2.27301727457274
S           4.39671510239202    3.02256594925825    1.36596295363380
C           4.25680143379508    4.57542373014337    0.58473256356836
C           2.99124623047552    5.05436614511167    0.52923440911299
Br          5.79409649312633    5.41578739708999   -0.08387546642781
C          -1.46317940382187    3.22309672697433    2.15997269474609
O          -2.29899053909158    4.05970641106437    1.86731393937936
C          -1.68291223370474    1.94097342397506    2.83753194432004
C          -2.90347053928705    1.43913119593951    3.21993770428331
C          -4.18901323163546    1.97957297001441    3.10066963426180
C          -5.32498189403902    1.26599739138329    3.52820056947811
C          -6.49332922708974    1.95223427539210    3.32098687237479
C          -6.27186742040945    3.21700920415471    2.73698404907532
S          -4.61984029309863    3.54769776895734    2.43320221289769
C          -7.51551682222784    3.84758017840580    2.54814205533722
C          -8.53734744250906    2.99516339177736    2.99973250710005
C          -7.96728387950467    1.70686646935883    3.54378433220466
C          -8.45873018973700    0.49718424687536    2.74417112766714
C          -8.28906105775152    1.53964422039168    5.03141391758716
C          -9.79464884876201    3.53179602952404    2.82908759304221
C          -9.75419667894382    4.80426348810298    2.25291740793453
S          -8.11539333439861    5.33440333892386    1.92960064966338
C         -10.86027534966652    5.62308436977138    1.92183610934154
C         -10.67640407647102    6.91785981396834    1.37992706134145
C         -11.77923838149399    7.76423985625220    1.00765716009165
N         -11.53690327705209    8.98140792635309    0.51210718314265
C         -10.30281343216734    9.39871337765243    0.36256750937108
C          -9.20566125959822    8.55323250760789    0.72478539184015
N          -9.42510358028725    7.35702993931208    1.21561795855845
C          -7.87256459874320    9.00454021088373    0.56337642827337
N          -6.80902908326063    9.40367394361213    0.41742133375796
C         -10.06878552779276   10.69685334967462   -0.15417551915603
N          -9.84572067626275   11.74173752344257   -0.56661690649612
C         -13.12904139210693    7.36024985795157    1.13907229801319
C         -13.31980817965474    6.07211667236737    1.69808965136736
C         -12.21114090999560    5.22541214885657    2.08546170532828
N         -12.63494486234741    4.06497421421356    2.58469617462648
S         -14.24006800144215    4.03149374707976    2.57417472397183
N         -14.49103113349894    5.48330913414748    1.93628387687584
C         -14.18669591401073    8.20216338191456    0.71909649570405
C         -15.55403333758722    7.91921810671395    0.75896683253824
C         -16.31697018690214    8.94952165000780    0.25262219337405
C         -15.53932463978310   10.03673577450247   -0.17846278899799
S         -13.85425265814061    9.78323533548482    0.04080847109696
C         -16.39500884112598   11.02886906812021   -0.68874799463180
C         -17.72628791930596   10.58795884212002   -0.58834356984349
C         -17.78749683964910    9.20985864588487    0.02531379557301
C         -18.38163382962281    8.20596417827159   -0.96787253247640
C         -18.56782851377130    9.20202176237164    1.34224005001951
C         -18.62734336402316   11.48008637735473   -1.12628034867158
C         -18.00744275172164   12.62086004708905   -1.64280817028518
S         -16.26632965018428   12.57242469878307   -1.40785457282108
C         -18.57262421912096   13.75545231798505   -2.24856567991575
C         -19.81583485893388   13.92914873259163   -2.79224736103986
C         -20.85062947044548   13.01496713266800   -3.21041915366609
C         -20.68163011984211   11.72687556482417   -3.65726186935915
C         -21.73238278214140   10.91082801791100   -4.12052650464191
N         -22.55269495685983   10.19390987922411   -4.48328742400009
C         -19.43218516230341   11.08978578631866   -3.78231907408750
N         -18.44185615316730   10.52965386137886   -3.93719248240114
C         -22.08647571075640   13.78418761044693   -3.33838147109192
C         -21.77612639075528   15.16277635420831   -3.22820787642930
C         -20.33134241977168   15.31369666370716   -2.95998394314731
O         -19.70001617311232   16.34016842704269   -2.85320833289585
C         -22.72810969374403   16.14515111280394   -3.34848448656672
C         -24.05074849768774   15.74807381280223   -3.57470810171457
C         -24.35223967135923   14.36864678708363   -3.66815636316413
C         -23.38727326456181   13.37445495885803   -3.55707959229465
S         -26.04793258155085   14.10150163242153   -3.93576312660790
C         -26.32512938637869   15.82324258087810   -3.92331457258870
C         -25.20698518461221   16.56149067780944   -3.72756550413413
Br        -28.06445329519819   16.48132351830411   -4.16611864371303
H           0.16313889116879    5.18677889403381    0.89422846648716
H           2.50309476791309    1.11464939400785    2.64023123661809
H           2.72417022606482    5.99490153086542    0.08303686262354
H          -2.89977190466244    0.45956860866484    3.68251295665349
H          -5.24337885652777    0.28567490777271    3.96346827859487
H          -8.22460721901931    0.62061270546706    1.68929649097484
H          -9.53511977802160    0.39168124690537    2.85267917381313
H          -7.97799492584988   -0.40863029883954    3.10449459530352
H          -7.93001726035384    2.39758857899632    5.59512839968592
H          -7.81065098721962    0.64349776347691    5.41806397839977
H          -9.36347346720512    1.45408012232648    5.17240912752739
H         -10.72432244233890    3.06248580879280    3.09117502186738
H         -15.92419938396785    6.98805978844219    1.14539725626166
H         -17.86399285262930    8.26859315214122   -1.92196364791785
H         -19.43385098358887    8.42304304417771   -1.13398502453631
H         -18.28724731522297    7.19539142488157   -0.57910887923820
H         -18.14110361542158    9.91797767093376    2.04115501476366
H         -18.52931305897410    8.21215973089824    1.78950611541197
H         -19.60718125493937    9.46567860013861    1.16293382886925
H         -19.69511791289287   11.35342360661872   -1.12075576235524
H         -17.96344384798978   14.65476899116031   -2.23336839012793
H         -22.46242533066362   17.18766486845329   -3.27093978645616
H         -23.66516094788028   12.33608090113060   -3.63125280540758
H         -25.19572751472611   17.63550101576885   -3.69125900779191
