123
 SCF done       -255.429172641705          0.000537573327
C          -5.32456789632495   -2.55804263017179   -0.31334394193813
C          -5.02921152131720   -3.54845408694106    0.57848000597961
C          -4.74153479251625   -4.87786697363045    0.20010793523282
N          -4.50395854359913   -5.96846528890462   -0.06315723385983
C          -4.91285571020213   -3.33372543313170    1.96914194767202
N          -4.79641254736029   -3.19315526060851    3.10186763254393
C          -5.38480522311963   -2.67449494961401   -1.76084270906364
C          -5.37142776805357   -1.37248131635926   -2.32499043508687
C          -5.43671748673307   -1.15877539766805   -3.68079539983230
C          -5.58621097860254   -2.27314128838096   -4.51108793553360
C          -5.63195428612102   -3.56885712370474   -3.93374445116794
C          -5.50951701994694   -3.78947432706821   -2.56882798072410
S          -5.89820152987621   -4.78989591483567   -5.13008398075321
C          -5.94790878665556   -3.57428200689385   -6.37143732925173
C          -5.76281828350607   -2.30996048753015   -5.91854898235722
Br         -6.23325324433104   -4.07558448293667   -8.14845205783934
C          -5.37891274838605   -0.37062594844600   -1.24683414480746
O          -5.19702403850192    0.82006692544874   -1.34042404034751
C          -5.62423589505481   -1.16251690262912   -0.00205693573157
C          -6.21554911957294   -0.71606964332102    1.12514585640416
C          -6.81069889345706    0.59304994636589    1.31211821947405
C          -6.57281904679760    1.19491080606225    2.63056076402591
C          -7.59580313723177    1.82864280363065    3.33903666149163
C          -7.34384517966705    2.38612471773803    4.57343870479300
C          -6.06793900641779    2.32514123740095    5.13365724780232
C          -5.05643420778911    1.65590780478489    4.44846680174109
C          -5.31163238354022    1.08827155329513    3.21591770066624
C          -5.87808483464350    2.95532806667416    6.47555733638253
O          -6.79587692922414    3.18075932532586    7.21495181837151
O          -4.62079818293858    3.27394525945828    6.82093105285413
C          -7.62820677576328    1.16450428804458    0.38024443964109
C          -8.08292646740021    0.42780486880681   -0.80880874630179
C          -8.52165910610129   -0.89414229537532   -0.72515849422567
C          -8.79112106510551   -1.61588854968699   -1.86748388300685
C          -8.67117937212980   -1.02249203089917   -3.12334838809968
C          -8.31632806850546    0.32277575214397   -3.20637206072789
C          -8.02239922953324    1.03619315914823   -2.06206714381724
C          -8.82456637429171   -1.88231303360990   -4.32742880498099
O          -8.58447329475754   -3.06057842638305   -4.31378852329511
O          -9.20719396228675   -1.27744902834936   -5.46355957883723
C          -8.08203147568186    2.54034574322893    0.47802680975479
C          -7.23386244586861    3.59434475767779    0.86432217100456
C          -7.69957252436722    4.94849623060343    0.95137242117834
N          -6.85694156782396    5.92102140383233    1.37851647084873
C          -5.64667957044172    5.60852000206827    1.68512663100027
C          -5.17529191735271    4.26430149512944    1.56829154142838
N          -5.94497723331467    3.31408027407732    1.16869747187559
F          -3.92129504887750    3.95888661733946    1.88604649190576
F          -4.83871655685931    6.57130329776831    2.10733551540749
C          -9.03288656007038    5.29584400979889    0.67812496685514
C          -9.86925764481730    4.25765502050367    0.23792355471900
C          -9.39525084445030    2.89790820307164    0.12827761393926
N         -10.36346604297248    2.07168227568687   -0.28661297744486
S         -11.70021855883610    2.91582671750990   -0.53378878588066
N         -11.15124605414947    4.36272444930017   -0.13180252623653
C          -9.50896071260894    6.65634811598742    0.87340967383226
C          -8.66239243337287    7.73057796924322    0.35877168332526
C          -8.42404170757639    8.87988833320171    1.11222668688002
C          -7.64125578658573    9.89977268996080    0.60687125942308
C          -7.08382301289157    9.79227920980175   -0.66503948946433
C          -7.29968296237105    8.63121807865919   -1.40801603710070
C          -8.07682501299402    7.61278473459328   -0.90450995459895
C          -6.22674909777805   10.84903710800340   -1.28333676735281
O          -5.47123063300199   10.61911435203650   -2.18697560428008
O          -6.35318312624215   12.09281514795894   -0.79345646672342
C         -10.67799944585627    6.91629080636532    1.53624908954277
C         -11.41472586786836    5.83945226900558    2.22332813040151
C         -10.75234564697060    4.93227600342277    3.05232713092151
C         -11.44947192882613    3.93829015228777    3.70843371441986
C         -12.82802332582757    3.83060200667697    3.54303738467194
C         -13.49366344188385    4.72528102615934    2.70722342014624
C         -12.79467563680390    5.71842760692295    2.05541746411823
C         -13.62042914748697    2.79021033074633    4.23855328659805
O         -14.81717432239070    2.67629369354356    4.14694109951752
O         -12.87423608382675    1.96776489912395    4.98576884567843
C         -11.25896675821484    8.22887569755849    1.51453577537231
C         -12.17434155637102    8.74090824155713    2.37602313329428
C         -12.62700023606009    8.26773263928241    3.67009404892042
C         -11.83410776784349    7.65254234475864    4.60074654912223
C         -12.29556008258783    7.19924304415295    5.85141277012028
N         -12.65314904415477    6.79198194056885    6.86261247108599
C         -10.44575662023111    7.51825146154481    4.39584856699373
N          -9.30682980717969    7.49163643035802    4.25687477583795
C         -13.96530518141500    8.79720389728593    3.87769594005327
C         -14.21854411255848    9.78253097753603    2.88664717515673
C         -13.06818020952933    9.85977269869927    1.96277305032376
O         -12.90078314347770   10.61834338997319    1.03729504483385
C         -15.38742956760237   10.50413099833136    2.85433749111226
C         -16.35040159956839   10.23232899410724    3.83228004306886
C         -16.09177042768772    9.23593931399629    4.80635396383514
C         -14.90625654962747    8.51260655910532    4.84795212072857
S         -17.42037742199773    9.05996084019756    5.90929339213181
C         -18.29256122213344   10.31257654995072    5.06587585128474
C         -17.62506226620587   10.83533104643026    4.00910297295721
Br        -19.99995096968570   10.80991696325986    5.65721079106783
H          -5.40439937474288   -0.15905907237583   -4.08510892637431
H          -5.54793226253749   -4.79026376708087   -2.17088552891620
H          -5.76651490873338   -1.44070540812919   -6.55077818122784
H          -6.28428996439376   -1.37856709465730    1.98103227374610
H          -8.59205552501729    1.86663761698176    2.92220495707344
H          -8.12346689347189    2.87774319775086    5.13572884089591
H          -4.06931696095055    1.53952073221944    4.87542178916652
H          -4.52131145431621    0.58239686575087    2.68287283465155
H          -3.97767245760978    3.08781195549750    6.12380741712778
H          -8.63208778563567   -1.35802501066525    0.24365226722632
H          -9.08945224828835   -2.65171602643994   -1.81255296844910
H          -8.20627744301407    0.81113673032017   -4.16596431833798
H          -7.68558009826350    2.05874205360786   -2.13791983827255
H          -9.43384119816520   -0.34711257516613   -5.33236208011028
H          -8.81446888904418    8.94339229786661    2.11635621727646
H          -7.44519397307809   10.75809196256804    1.23589085297883
H          -6.84419654716626    8.55728311341757   -2.38385465404159
H          -8.25528601980324    6.72392710832544   -1.49208796198936
H          -7.02436513592945   12.15768241305688   -0.10120496083487
H          -9.68747727778119    5.02996322074434    3.20359291614798
H         -10.93664751342238    3.24903630964409    4.36065448577343
H         -14.56120608262099    4.62189696228389    2.58513146199367
H         -13.31196329930593    6.39706246731128    1.39370278451397
H         -13.44112343034653    1.32620261175984    5.44201456316458
H         -11.03422039537232    8.84502825084223    0.65008519212805
H         -15.55512831643699   11.25636670037610    2.09963023930572
H         -14.74628866071591    7.75935161062155    5.60201189290387
H         -18.01466502319448   11.61438202570183    3.37970964124004
