106
 SCF done       -205.352747852854          0.000609143603
C          -2.73360273614751   -2.06518857094762    0.43378041130515
C          -1.40489519419489   -1.87366464229282    0.72184492544760
C          -0.42081846048450   -2.87830865342653    0.61810971841112
N           0.42885889009279   -3.64826296333451    0.55779731720957
C          -0.81890245468843   -0.66505199068759    1.14974139244675
N          -0.25958926460263    0.27669687746000    1.49748853303463
C          -3.31784601758967   -3.32031642455302   -0.03304775075581
C          -4.70132187907097   -3.11942198144884   -0.26045079754719
C          -5.53542365879987   -4.11512189662759   -0.70507334517774
C          -4.97653369936380   -5.37641133712885   -0.93766242808534
C          -3.59396768820463   -5.56979374755671   -0.70907431878163
C          -2.75087979233969   -4.56012830891672   -0.25924735587663
S          -3.11110987856176   -7.20196080134453   -1.05901985588683
C          -4.75101701558409   -7.59633726811314   -1.50109835208780
C          -5.61714798286732   -6.56108497716779   -1.39316789698750
Br         -5.16525304613861   -9.33728690163406   -2.06283928662463
C          -5.04240609283291   -1.72130809237576    0.05717938729444
O          -6.14624022036763   -1.21216227643547   -0.03945954374568
C          -3.80141667576414   -1.08969552396655    0.50982446072162
C          -3.68131015299544    0.20211566532567    0.96623979409642
C          -4.63350273712510    1.21935347227852    1.07788147676896
C          -4.30799563852536    2.48022143361399    1.61049343944836
C          -5.37502136170794    3.34248154179053    1.63132300399351
C          -6.53987892343982    2.75493618932458    1.10115417920727
S          -6.32376973061073    1.13644116602093    0.59556958823156
C          -7.57939130900750    3.70458437875422    1.16285435457896
C          -7.10229677028970    4.88786660629051    1.73317270324967
C          -5.63728029549128    4.76258995099434    2.07804911670438
C          -5.40014041508364    4.92870493186385    3.58136556674115
C          -4.79486990921193    5.76418939328927    1.28300661562309
C          -8.07409361067276    5.86910547778592    1.84104760233519
C          -9.30586720868944    5.45816774856711    1.34432022757761
S          -9.23883738383228    3.80327743021283    0.74648904098270
C         -10.53627296923406    6.17008136497959    1.28976020578871
C         -11.70462760657312    5.56000144080929    0.94334902345954
C         -12.95575364098981    6.21536519205314    0.92337261679615
C         -13.07337524650126    7.56359354450808    1.07519437502705
C         -11.80564512150932    8.38555649081380    1.15891253500776
C         -10.59208540803210    7.62579407607846    1.73448919173847
N          -9.35178805406720    8.30167119857641    1.42541185459912
C          -9.26853723679145    8.93650530809339    0.34220510600465
C         -10.41886560725594    9.11509119840890   -0.56220637298034
N         -11.59510928214380    8.88375740445636   -0.18562695479272
F         -10.19038999346566    9.54694065932945   -1.79569511459046
F          -8.12206394536302    9.52989583922610    0.02900177011943
C         -14.30987531272703    8.25956415654437    1.01372482983575
C         -15.57605303717660    7.73558431373254    0.76915129579808
C         -16.56480297836576    8.70297903580608    0.77870383656298
C         -16.06889254449293    9.98495372008991    1.03669991239789
S         -14.36967272797971    9.99590275005700    1.25680594457992
C         -17.13740893434374   10.90382802262947    1.02437523589987
C         -18.32738504367559   10.21141833071783    0.75337057464832
C         -18.06000614123987    8.73699189187578    0.56889828847450
C         -18.42904275995268    8.29800360773570   -0.85172534018066
C         -18.79196669273806    7.88845151777765    1.61178846270239
C         -19.42265237133187   11.04376362707171    0.66324880286205
C         -19.09625486501626   12.38418117207262    0.87348428672399
S         -17.38307804224574   12.58186019446689    1.22018460605763
C         -19.92389152417154   13.51851339463428    0.89039789748022
C         -21.18488183601898   13.68613544775212    0.38519742925218
C         -21.97621982404985   12.94202400139806   -0.56367010750029
C         -21.51167052882686   12.15107517210368   -1.58681204267717
C         -22.34251405233922   11.49868132302110   -2.51848105986105
N         -22.96840413892932   10.91548867872611   -3.28483010051832
C         -20.14891861111323   11.95558368922975   -1.88149674085126
N         -19.05681874429528   11.78673379948694   -2.19409817879740
C         -23.36041524527639   13.38998938642237   -0.42476830124155
C         -23.38683454002174   14.52504324378691    0.42338591200476
C         -22.01799841425879   14.79929146324540    0.90715874846858
O         -21.65129574429538   15.71063456897279    1.61462916268743
C         -24.54483390738453   15.20525090058988    0.70968583105293
C         -25.73459088803011   14.73746644005664    0.14050407892746
C         -25.69933446487913   13.59490200206463   -0.69320245494669
C         -24.52629653980992   12.91077262435241   -0.98944327533326
S         -27.28137674991137   13.18425773690853   -1.28273716505593
C         -27.95903666920734   14.53832889792656   -0.41781923261588
C         -27.04985119747715   15.25994387497704    0.27932695165624
Br        -29.80279367508442   14.86875449833460   -0.51569864390261
H          -6.58524579225676   -3.92805493935273   -0.86781043158417
H          -1.70480471885635   -4.76069299190215   -0.09994166750574
H          -6.66456298231738   -6.62762390804754   -1.62448162675105
H          -2.69917558067140    0.50437781292509    1.30902299889153
H          -3.31452969281835    2.70553287497729    1.95597624996456
H          -6.00228423495438    4.21639871994435    4.14090362379571
H          -5.66998559561738    5.93483110870033    3.89176279182173
H          -4.35222750106820    4.75810768271475    3.81400587926446
H          -4.96046275348643    5.63553093148645    0.21583689642270
H          -3.73920713553009    5.61213528214207    1.49245708222787
H          -5.06617471678175    6.78039601076257    1.55730471930198
H          -7.91964456887519    6.84578178759389    2.25847210575449
H         -11.68635394102772    4.50976869667397    0.69079266029850
H         -13.83352129799485    5.60740875215228    0.77537196558804
H         -11.98830011580334    9.27156011238468    1.78454773783888
H         -10.66055572052422    7.62040641521947    2.83172610031086
H         -15.75033432378495    6.69217158239166    0.58455312242268
H         -17.94515561535586    8.94173170960680   -1.58217308768287
H         -19.50457493645339    8.36433563232548   -0.99515151900457
H         -18.11392237852128    7.27159297328914   -1.02098888291481
H         -18.52134099810778    8.20481192137883    2.61676553269221
H         -18.52645155606161    6.84119095284263    1.49214758076227
H         -19.86711527203812    7.99264760901987    1.49031331247703
H         -20.43215765973538   10.71340843762110    0.49599909390320
H         -19.54453423547983   14.37709643707121    1.43705181174842
H         -24.53452331302386   16.07289312371189    1.35044934926021
H         -24.54970185112993   12.04281119080284   -1.62742939911211
H         -27.29420033875634   16.12553097375702    0.86755639541934
