123
 SCF done       -246.978285116161          0.000760092692
C          -6.80154211554940   -3.53753759957975    2.20485471334862
C          -5.56877528088697   -3.81978488180106    2.73737218616452
C          -5.00952575130595   -5.11755033216161    2.76850320912823
N          -4.50194962546378   -6.14529255358459    2.81513643870731
C          -4.71941207238464   -2.92499371018572    3.41132610583961
N          -3.97247832598997   -2.31202125655365    4.03611943134303
C          -7.74190289131216   -4.52633583389601    1.69281778140079
C          -9.00070471881630   -3.90100511981443    1.50731186475147
C         -10.10736114746428   -4.58072663572960    1.06138652468805
C          -9.96328999925003   -5.94094810032662    0.76772372837097
C          -8.69926197069931   -6.55551913647365    0.94515853810796
C          -7.58273387146109   -5.87019824955571    1.40684733345913
S          -8.74299563086779   -8.23922207970969    0.52121119770309
C         -10.43361921014120   -8.09903520795012    0.11988682350383
C         -10.94158749045846   -6.85444438213693    0.29234245031889
Br        -11.36825642013997   -9.60532380990028   -0.48780286218931
C          -8.89671612783312   -2.47561677314245    1.87271566609979
O          -9.81171774922758   -1.69340118264706    2.00547859932236
C          -7.45121567095256   -2.23933074429353    2.12915320223522
C          -6.82236665061352   -1.03577147066019    2.23602610542177
C          -7.36958463183072    0.26434187600974    1.98768792255184
C          -8.50407913716228    0.41843611077663    1.06325698881697
C          -8.46533923153715   -0.18170098633279   -0.19388973320320
C          -9.47966278340460    0.03509619216988   -1.10089187414503
C         -10.57112295025652    0.83041816098834   -0.76063932970513
C         -10.62658000522653    1.40920189811059    0.50531517820914
C          -9.59813899685980    1.21064328381157    1.40286836674661
C         -11.62057428135988    1.06368769847885   -1.79250224461019
O         -11.38291343668143    1.07839702685925   -2.96922868518644
O         -12.87018298258225    1.26196952269402   -1.33678076988460
C          -6.79021301337898    1.36909668092914    2.56640325285230
C          -5.76148951487502    1.19821634601093    3.59022230623708
C          -4.57280061230445    1.92623798067459    3.51005199524485
C          -3.51775449154486    1.62594625642034    4.34648001628933
C          -3.63533991310575    0.59279285585762    5.27014850386285
C          -4.85288172580202   -0.06147405156069    5.42790893293178
C          -5.91109954654378    0.24593572623914    4.59911183108440
C          -2.43358474805761    0.14129565541535    6.04667165989293
O          -1.71426609647568    0.88670334169784    6.65186984990239
O          -2.21974617053319   -1.17388623582339    5.98958824682944
C          -7.17515945764492    2.72933969716727    2.24475209445632
C          -7.39811521675197    3.19475358894992    0.93217841821672
C          -7.91641774014443    4.50703593715828    0.67470738372279
N          -8.30136368073085    4.83339249083796   -0.58016508077838
C          -8.06703280952816    3.99498002186313   -1.54308956913906
C          -7.35973462705233    2.78945583423861   -1.31140204321236
N          -7.06847179301307    2.39656124672733   -0.10875203925135
C          -8.10806914550638    5.44574948512760    1.70897381049154
C          -7.81014179560235    5.00895966094131    3.00915058662593
C          -7.34545393592528    3.66764976238527    3.27416108038211
N          -7.15448824589351    3.46370733651447    4.58445752902127
S          -7.48349925232975    4.81349140434467    5.37582679851341
N          -7.90722263324193    5.72587967681195    4.13632757373325
C          -8.64755168878456    6.77472509722848    1.49293850764024
C          -9.61740780768166    7.22845409209594    2.49321571544429
C         -10.63893646682408    6.37112347824810    2.90898219971854
C         -11.55001505263485    6.78154700800687    3.85584551601571
C         -11.46847353101642    8.05994816792483    4.40784160928089
C         -10.44394851123347    8.91277133364011    4.00481325279065
C          -9.52729616829969    8.49997452661819    3.05698263836310
C         -12.47594552434081    8.42538670340604    5.44785259763280
O         -13.06141671606315    7.60242184878565    6.09640822432224
O         -12.71062614468522    9.73607393828460    5.62433173835010
C          -8.26676956069335    7.58650121764152    0.45839525698968
C          -7.14830286707351    7.24047468737316   -0.43595206266529
C          -7.27620821031035    7.42108533143941   -1.81480922779694
C          -6.21480712989238    7.16703865588543   -2.65512876285760
C          -4.99765440000457    6.72789613870555   -2.13624976201397
C          -4.86869672252973    6.52325683749097   -0.76510021602757
C          -5.93490090413379    6.77685707939390    0.07384177833219
C          -3.87210152174822    6.50544157362847   -3.07110209394041
O          -3.92355344313609    6.71491906830630   -4.25741767245588
O          -2.76684958112513    6.04130550430556   -2.47266966167567
C          -8.99124512036054    8.79589896065241    0.18175563762076
C          -8.55171130896321    9.88236524544488   -0.50372268911042
C          -7.21563584666466   10.26389800372118   -0.91858688608465
C          -6.07585570029770   10.04325637503007   -0.19295419579238
C          -4.78588045995188   10.41819059385073   -0.61308594512282
N          -3.71658997818462   10.68279653186637   -0.93472042781598
C          -6.13585564376477    9.50025534521718    1.10625378916969
N          -6.20008294076508    9.14755620892253    2.19684531084704
C          -7.35535603328765   11.13256690057727   -2.07601369819961
C          -8.72130322210590   11.50153220892921   -2.19940003273300
C          -9.51337249428510   10.81426167053776   -1.15787656945026
O         -10.69051069766535   10.93321255281738   -0.91242947395641
C          -9.15970911037692   12.36737287703953   -3.17200332215949
C          -8.21267872728375   12.88046650105923   -4.06530200341533
C          -6.85540479560617   12.49219665889430   -3.94073373878501
C          -6.40783021817230   11.62410706840087   -2.95255496741523
S          -5.86233940591439   13.24161855288054   -5.15114531813902
C          -7.25954433737355   14.06150894869253   -5.79654247646743
C          -8.41351698669499   13.78580802350368   -5.14230721181572
Br         -7.06374746141637   15.20304726604931   -7.26990219079833
H         -11.05408327418288   -4.07850373245832    0.93938305036979
H          -6.64255071658899   -6.38278926787720    1.52252509572168
H         -11.96414370904828   -6.59127512357750    0.09243646247968
H          -5.76910162197562   -1.05222392548624    2.49444438036704
H          -7.61817825114305   -0.79404565327219   -0.46535185000244
H          -9.44887276458386   -0.40439118546699   -2.08639552096867
H         -11.45325267218587    2.04927714522117    0.78629613280989
H          -9.64682398639146    1.65742744220416    2.38500645745929
H         -12.93287354154293    1.15882629291326   -0.37752968258394
H          -4.46613479654101    2.68390564285183    2.74750448485359
H          -2.58031857188336    2.15469353610909    4.26667993200992
H          -4.96616580701870   -0.81579995093938    6.19298881078950
H          -6.86088946782605   -0.25337060996353    4.72115229043554
H          -2.82978318479248   -1.62765651372667    5.37074567959191
H          -8.42013262363835    4.26515837758583   -2.52786689045507
H          -7.04709996467543    2.15176934174019   -2.12573720474421
H         -10.71621215555036    5.38677649594550    2.46995940729837
H         -12.34274711038270    6.12927374883493    4.18947243752506
H         -10.32115475327891    9.89050264751537    4.45179098296204
H          -8.70378638272344    9.14173922042139    2.78360956599264
H         -12.21704232863533   10.29105331285352    5.00585908021620
H          -8.22186635908752    7.74502053282719   -2.22330308616771
H          -6.30095621716670    7.30717393388964   -3.72206635222266
H          -3.92720219044384    6.18213268273427   -0.36435521443529
H          -5.82293016099623    6.64583122835498    1.14007797063946
H          -2.05804747372910    5.93618606995782   -3.12669890222218
H         -10.04229314169025    8.80767776833210    0.45115107542811
H         -10.20007814038583   12.64376234024144   -3.24204480787758
H          -5.36795190354462   11.34702179885382   -2.89132635777886
H          -9.36751696534843   14.20399520100490   -5.40697858695402
