101
 SCF done       -213.188652643233          0.000720514348
C          -3.36581110734129   -1.62465452589548    1.29938224786599
C          -3.09989588155500   -2.48500123260088    0.26525901298920
C          -2.68765951600301   -3.82423319269231    0.43264644704606
N          -2.34525901069388   -4.91749322077377    0.50120277642815
C          -3.17320668839998   -2.14768970915327   -1.10194726086786
N          -3.20991745317755   -1.93065797753147   -2.22902559197851
C          -3.28405035912665   -1.94280963480083    2.71849746708779
C          -3.55662903871760   -0.77394365056558    3.47395771459086
C          -3.55219404660715   -0.76014407440937    4.84754256870799
C          -3.27592638297603   -1.95989370903705    5.51037200789789
C          -3.00567839956825   -3.12405880447990    4.74870776206894
C          -3.00359926136497   -3.13637636881810    3.36016289581680
S          -2.68352910034366   -4.49307990576652    5.76757901173674
C          -2.91126511611554   -3.49940772836374    7.18261473049301
C          -3.21533103874677   -2.20800641290980    6.90825531237690
Br         -2.72565215744580   -4.26025317031851    8.88489050311093
C          -3.80050030090984    0.35334164104982    2.56151673090252
O          -3.83695783018710    1.52759983277608    2.84070756221869
C          -3.80540894202887   -0.24491737281454    1.18723554555807
C          -4.11099613947187    0.44466745929621    0.05834020318399
C          -4.80892946950196    1.68537973132433    0.06144604846662
C          -5.81511134647887    2.10755285649721    0.92229914629167
C          -6.30301377767124    3.35116759895466    0.46037023454129
C          -5.53731043621131    3.73064417974364   -0.71127718207312
O          -5.53883266822821    4.71687213678182   -1.41648338822795
N          -4.67889166892323    2.63104589694927   -0.92051696620051
C          -3.72943692405889    2.59295485460524   -1.99893541499221
C          -7.29151026783941    3.78151055478302    1.34606761370125
N          -7.45477024634202    2.82350245627548    2.29944690167267
C          -6.59022560061927    1.72429898153154    2.08427968960972
O          -6.60699592698132    0.71822781702628    2.75690993774649
C          -8.45175186088501    2.77565346493375    3.33488423480732
C          -7.94380984944234    5.05488826690482    1.22831189645790
C          -8.17284494771129    5.96506961615497    2.28103221374696
C          -8.61850114001520    7.30684869252675    2.01090792732179
N          -8.64629507946416    8.20800820142566    3.00177020642362
C          -8.43695890147052    7.81850277622069    4.23152589801065
C          -8.11265333212830    6.45151347236947    4.51703847987922
N          -7.92671426349912    5.59180403294406    3.54786685268286
C          -7.93331433485516    6.02268042927999    5.85655693541257
N          -7.79941490371878    5.69491112157401    6.94563823547169
C          -8.50447698387435    8.78044211321568    5.27035798018707
N          -8.57955960048604    9.54260847744176    6.12179393395671
C          -8.94827546806600    7.75663779014136    0.70801655486970
C          -8.75728881248818    6.83822476480233   -0.33594516564064
C          -8.27110088584970    5.50329710390815   -0.06583354015066
N          -8.25282220871773    4.75228821580102   -1.16805891673546
S          -8.72879027548630    5.63041140786434   -2.40929726018154
N          -9.04227830319169    6.99757422810836   -1.63274202462667
C          -9.53792657834671    9.05776235393741    0.59236067136279
C         -10.43371740195921    9.60750743375925    1.50788548796981
C         -10.77683851742698   10.90729695765688    1.07182496782774
C         -10.02334989856286   11.17198135805656   -0.13433177863970
O          -9.94456869693151   12.15679659717926   -0.84343928180653
N          -9.32400619783865    9.97825753726165   -0.38931159089414
C          -8.38835798625788    9.88396901138015   -1.47703795741817
C         -11.71909511403673   11.43448817835217    1.96167214070116
N         -11.94947800947794   10.47636572999450    2.91989140476177
C         -11.21984999332532    9.29961645467904    2.68754604096210
O         -11.31251826925479    8.30493380586204    3.37507442407446
C         -12.87380294719273   10.58172119416036    4.01586423287911
C         -12.29351526255277   12.72144272878886    2.06544676281573
C         -12.38667344251727   13.73693064457843    1.16146955687973
C         -12.20110578498455   13.84592878331893   -0.26286456500125
C         -12.35820477472016   12.84719328567378   -1.18964523621931
C         -12.23677632878914   13.03206009077070   -2.58308546659415
N         -12.15610865509148   13.12361776936214   -3.72363929487912
C         -12.79002463494878   11.54867391130066   -0.85959202029365
N         -13.15404026956484   10.48428612052786   -0.63138018654434
C         -12.00439669090831   15.25917159378047   -0.56880555590854
C         -12.29476333999611   16.02590224623231    0.58879674542948
C         -12.63623730377989   15.11742165681141    1.69452998061098
O         -13.00269211060972   15.39279192129318    2.81206809171689
C         -12.22227094924001   17.39853762990189    0.60193040055869
C         -11.83041973908088   18.04135666136404   -0.57686514614872
C         -11.52514389267291   17.26468168645285   -1.72124764479257
C         -11.60937816020681   15.87700057633867   -1.73832533488634
S         -11.04740063869819   18.26092648933363   -3.05974184559853
C         -11.26342354374029   19.68883696608792   -2.08128222775771
C         -11.67173274139227   19.43409972220320   -0.81551480136450
Br        -10.92869941296595   21.37766972878111   -2.82281994324739
H          -3.76371099621991    0.14673831088101    5.39122532440902
H          -2.79093235137805   -4.04784941950591    2.82682840867185
H          -3.38932124160412   -1.45965316857484    7.65964302041435
H          -3.87042178815705    0.03655901510736   -0.91461979564351
H          -3.82830415685538    3.53089945253704   -2.54498284180650
H          -3.93856881044466    1.76023165041027   -2.67370971935965
H          -2.71078983259395    2.50003343783209   -1.61864119984594
H          -9.39769492640990    3.17387426879454    2.96969048903293
H          -8.13539392608100    3.34475654407067    4.20961187531396
H          -8.57180621954730    1.72908101891145    3.61663280425483
H          -8.37630357810306   10.85439688613798   -1.97268771238330
H          -8.69942029256654    9.11181484332493   -2.18095781771776
H          -7.38990339832056    9.64836638435237   -1.10481892676488
H         -13.87422722579144   10.83056800229881    3.65933757305629
H         -12.54364375522937   11.33186175000389    4.73752109859136
H         -12.89500698647233    9.60809679320318    4.50537679838154
H         -12.64258423203110   12.99265490890551    3.05858258473173
H         -12.45470063802759   17.95906282801224    1.49376027584989
H         -11.35696328312808   15.32300999085567   -2.62694011695891
H         -11.85303781896623   20.19521019524090   -0.07880186268302
