91
 SCF done       -194.010512981454          0.000752158783
C          -6.24544472872152   -1.32189001922336    1.03765100687606
C          -5.48997108089908   -2.25293231955554    0.37571751243264
C          -5.63146607823223   -3.64670875103857    0.54233206157895
N          -5.70257914433221   -4.78801274946713    0.64021728934097
C          -4.44235892690267   -1.94953693417921   -0.52039613019752
N          -3.56393663746407   -1.78377095179837   -1.24067658932442
C          -7.24741032556749   -1.60142072096068    2.05802768189352
C          -7.68539520620326   -0.37292087166121    2.61188413814247
C          -8.62403965097794   -0.30539781355967    3.61241686581238
C          -9.15479065595610   -1.50764209690629    4.09195807250072
C          -8.71497279222965   -2.72960190384113    3.52915449031588
C          -7.76684415678352   -2.79785231700592    2.51563127368397
S          -9.50285713652657   -4.09212169812912    4.26471597930123
C         -10.39694747475123   -3.01755477652740    5.30649675717085
C         -10.12276158898119   -1.70514421472148    5.11394230113776
Br        -11.60742126709084   -3.72785330878788    6.54999917479144
C          -6.98768995489069    0.74236422915173    1.94769750090115
O          -7.14508181488949    1.92714408029823    2.16543948183068
C          -6.11974423589053    0.12002216185462    0.92477896454757
C          -5.48484089270230    0.78575323122972   -0.08494233543631
C          -5.26383611467796    2.17793321782685   -0.20993004928519
C          -5.00296930630430    3.15406857539781    0.74531136722233
C          -4.91937598738005    4.45375938528067    0.19510718618151
S          -4.92555331737819    5.94674083345052    1.10383503026617
C          -4.36221039843122    5.42147755594021    2.75886023012662
C          -5.09875603481126    4.20543648214356    3.26333620046154
S          -4.56900111638768    2.70731006782224    2.37518542761116
C          -5.05772056248067    4.46136028817724   -1.19365310847244
S          -5.36582559653617    2.86624485049956   -1.80860071823820
C          -4.94301129396866    5.54557359719278   -2.11329274783533
C          -5.56732149345860    5.47760806322006   -3.38151017304050
C          -5.51594142485026    6.56192112351928   -4.32728443445074
N          -6.08565163673710    6.41917879319567   -5.52672702002010
C          -6.71266864290050    5.30942358521380   -5.83290674474192
C          -6.80194889094465    4.24786818906638   -4.87546015960339
N          -6.23120297848068    4.36088214476933   -3.70217693754331
C          -7.50649933801858    3.05746639084319   -5.18628069231939
N          -8.08487788753745    2.10859858026049   -5.46239889929594
C          -7.29539067864906    5.16923294872419   -7.11662566174447
N          -7.78306868874537    5.02000187493726   -8.14195018343197
C          -4.86102372004338    7.78531277057227   -4.04615993508363
C          -4.10424468836192    7.78442697032787   -2.85589775781533
C          -4.13287108677473    6.68617589636706   -1.91535774203481
N          -3.24643861594085    6.86330940008945   -0.93598010897366
S          -2.47337857784918    8.24749256491734   -1.15514152029077
N          -3.20497539339249    8.70305586053422   -2.50707492736032
C          -4.91913878312429    8.86242074809318   -4.97002988065138
C          -4.60726778196916   10.21088341339962   -4.78130875002525
C          -4.75311662558743   10.98240108394330   -5.95499458448131
S          -4.19332117169483   12.62168879981948   -6.19205300711300
C          -4.12801675983451   13.33813966210696   -4.50681560599599
C          -4.98045055255722   12.56263249382193   -3.53777369659130
S          -4.24229939497497   10.91634840535169   -3.22665169022665
C          -5.22095577179028   10.23911477119635   -7.03942061612511
S          -5.45087595960622    8.56332394033907   -6.59225869886552
C          -5.48671481917216   10.55975536552535   -8.38477996494202
C          -5.77107831357994   11.72102955398842   -9.04898908189975
C          -6.15880068685261   13.04352193015272   -8.64616028032010
C          -6.74768914313722   13.39218688536431   -7.45320045671348
C          -7.05576095223058   14.71224412886864   -7.07146212429253
N          -7.28395553486389   15.76481719299280   -6.67282850515367
C          -7.17203744577427   12.46083603505435   -6.49000637581727
N          -7.53996274619194   11.74438881351574   -5.67015587999860
C          -5.97888826904562   13.93050954556559   -9.79015579171477
C          -5.67183634401143   13.14599322803383  -10.92990314098338
C          -5.60223500175795   11.72593690037053  -10.53316398642568
O          -5.41007188582294   10.76567902452388  -11.24061505681283
C          -5.47523080435986   13.69543604935964  -12.17274748885624
C          -5.57527139292213   15.08619067123723  -12.29442691910401
C          -5.87420494164265   15.86094866602586  -11.14862042012113
C          -6.08382001438500   15.30375481252930   -9.89241530751394
S          -5.94210114782710   17.55568881892896  -11.52324936420514
C          -5.57589654873791   17.20616694859241  -13.19214812565071
C          -5.41020517202284   15.88850481995578  -13.45661423154589
Br         -5.44483364074258   18.61376810209829  -14.42418093010649
H          -8.93817432527960    0.64435828307505    4.01614634046801
H          -7.46753705887701   -3.75214197717571    2.11550889164926
H         -10.58404965276510   -0.90859781307095    5.66868022147486
H          -5.18950968078829    0.21368631663074   -0.95732054067001
H          -4.55708401182918    6.28804543822020    3.39132223200057
H          -3.28771693091854    5.24256721876339    2.70980527199300
H          -6.17772354512230    4.29164287566500    3.13927181524982
H          -4.86243846135949    4.01407188359811    4.30985086473936
H          -4.48924002151116   14.36063255359899   -4.62891896963992
H          -3.08517294427855   13.35539386951030   -4.18820394139761
H          -5.99981002087630   12.42841257403223   -3.90094468236826
H          -4.99720694689314   13.05657795979823   -2.56732427060598
H          -5.42799482403068    9.69992050728997   -9.05020532421716
H          -5.25084894977901   13.07416144132193  -13.02546279643465
H          -6.30677207278731   15.93419524506038   -9.04750664068878
H          -5.18022572525195   15.49635055002472  -14.43038992622458
