95
 SCF done       -199.296431420793          0.000857231583
C          -7.55260027038735   -0.90046586542332    2.35021859510012
C          -8.80667590785151   -1.44095257039200    2.47280966775717
C          -9.26352514979262   -2.12562954083108    3.61666963953038
N          -9.68314361617882   -2.68463960570244    4.52730746051189
C          -9.77050115200275   -1.42596066351723    1.44294291567127
N         -10.57025679255154   -1.48705711405297    0.62150418321551
C          -6.46258800151550   -1.02393343501765    3.30940721273325
C          -5.28526727366463   -0.48775859675069    2.73124093429525
C          -4.07795546302331   -0.47936345342072    3.38569281550812
C          -4.02885808990071   -1.02970198662522    4.67113667420292
C          -5.21164449197111   -1.55625718623566    5.24317529940977
C          -6.43380596316840   -1.56193933922755    4.58229563363954
S          -4.92645346160886   -2.18179621712170    6.83879351814126
C          -3.24462850880704   -1.73871790167167    6.71578561484038
C          -2.91187825959814   -1.15012912129943    5.54233749789291
Br         -2.08713177364813   -2.09561195660860    8.14736475339136
C          -5.58689149100251    0.02556501371153    1.37793663680957
O          -4.82051556553555    0.59101618312660    0.62833474866059
C          -7.03975617141362   -0.20986823620567    1.18745507393802
C          -7.77404155104559    0.36081441929861    0.18332591640392
C          -7.23370723517641    0.94715136756626   -0.98227044721033
C          -6.16513629296403    0.58898543050645   -1.79500763566501
O          -5.50432284066242   -0.57070432614241   -1.88103253939119
C          -6.00871157401900   -1.72895516228435   -1.26676664289274
C          -5.86712782325879    1.57633591252668   -2.78797409847596
O          -4.92092105962796    1.26280121373550   -3.68698289843293
C          -4.96626196419257    1.81622249713676   -4.98181366751681
C          -6.71144824684656    2.67592049335839   -2.72706757379491
S          -7.99303291453099    2.41426977412275   -1.57706856516409
C          -6.64532022146413    3.95261508471370   -3.37372704512916
C          -7.82639225006131    4.68272205292909   -3.64521624315975
C          -7.80859821662552    5.98554262291156   -4.26295063425467
N          -8.96400586648830    6.54790178172605   -4.64993500015554
C         -10.09282938595900    5.96664700306825   -4.34571528765461
C         -10.11560961867882    4.73566426687581   -3.60233976324913
N          -8.99772282471504    4.12171108572834   -3.31482133473075
C         -11.35155858848350    4.16764153039090   -3.20685157480113
N         -12.37567328735058    3.74787184006504   -2.91207179453268
C         -11.30584954772589    6.56985696432864   -4.76412387323091
N         -12.29949800692333    7.04732332411292   -5.07474139667175
C          -6.60064092082075    6.66581888307220   -4.50622950912305
C          -5.42207477354760    5.96398213704414   -4.18591272871267
C          -5.43895988490267    4.63099472883429   -3.63084787225320
N          -4.20340212526836    4.21773874055623   -3.32594606581742
S          -3.14887419358717    5.36610729302235   -3.68126876357306
N          -4.17751186316314    6.44643617952084   -4.26474480297414
C          -6.51639023568227    8.01688471307121   -4.97460379489491
C          -7.31127366303612    9.11326240899771   -4.67121684334187
O          -8.38501059222394    8.94207722335252   -3.88392250886032
C          -9.22074172054041   10.02752975065458   -3.53598992041881
C          -6.78357258060475   10.33522018041521   -5.20073122607191
O          -7.41619768571496   11.48922988371992   -4.91294773687901
C          -6.89145154987146   12.72887572816565   -5.32680773284378
C          -5.58087467755911   10.15705448529123   -5.87764572598642
S          -5.13734833026364    8.46968522438803   -5.90844334111433
C          -4.67132186425937   11.07764459070796   -6.47187224719642
C          -3.31927725213629   10.92125783098989   -6.54372405608003
C          -2.42302418579839    9.98903246785640   -5.88796018241135
C          -2.59407372807935    9.43653014655797   -4.64375385195730
C          -1.77602383414893    8.43629924570692   -4.09433392566075
N          -1.19668053070800    7.56010861521512   -3.62801512532263
C          -3.64459734482398    9.82404943697538   -3.78608892880789
N          -4.45051024111576   10.19468316877119   -3.05715132093296
C          -1.20445283897124    9.93434692287138   -6.68151179658109
C          -1.24484784510965   10.96937374977288   -7.65125342526422
C          -2.53667980010072   11.68062564644565   -7.55363050101516
O          -2.90712016715622   12.64312962067682   -8.18613872677463
C          -0.20513527191768   11.20342839985441   -8.51804751726561
C           0.91800965490523   10.37332361996022   -8.43097630119949
C           0.94283752010605    9.33789615651313   -7.46520409086956
C          -0.10262300379046    9.10665740023018   -6.58049129478474
S           2.42279967900389    8.43104076294436   -7.53852460551911
C           2.98366792748319    9.44297184094592   -8.84344184376332
C           2.10796305563246   10.40958168275059   -9.20815169241943
Br          4.66947279431065    9.12551378803802   -9.60028627598572
H          -3.19764135244940   -0.06601464491073    2.91895776020693
H          -7.30960700012306   -1.96873176335210    5.05988814358812
H          -1.92032654054491   -0.81436750327032    5.29937711102693
H          -8.84047224604805    0.49322973925441    0.32334101190444
H          -7.09992495432731   -1.77923546420380   -1.33600092435578
H          -5.71980811597586   -1.79229535283846   -0.21238765754213
H          -5.56307153316587   -2.56466011730072   -1.80623398807164
H          -4.34700628865065    2.71273322592155   -5.04781632093226
H          -5.98954352738793    2.05961953529726   -5.28102618761124
H          -4.56051503845127    1.05374061184902   -5.64774221763178
H         -10.02111417314947    9.58565973701534   -2.94356064834202
H          -9.64708949202963   10.50381421467855   -4.42041099500559
H          -8.68719322819121   10.76895219737086   -2.93863381619673
H          -7.48318142761415   13.47910156771723   -4.80316976897728
H          -7.00651717703334   12.87119118552257   -6.40425999247403
H          -5.83957788927120   12.82901096405871   -5.04515917152842
H          -5.05785051489324   11.92995024278135   -7.01687660670714
H          -0.25376600201129   12.00284444842975   -9.24057449050250
H          -0.04666414150301    8.30665102050567   -5.86050960955504
H           2.29186943686168   11.11971591756333   -9.99349212480441
