116
 SCF done       -228.774841797094          0.000304126616
C           0.88587946235313   -1.51035802021623   -0.55776188912650
O          -0.11221949048936   -0.70215422829679    0.02430406953011
C          -0.96686979728714   -1.25469768499251    0.92094951225529
C          -0.83431877485743   -2.54296101159804    1.42646791019624
C          -1.77746541438592   -3.03793960951590    2.30998913965885
C          -2.82495308389089   -2.24709730708333    2.73026410188744
C          -2.96320419161701   -0.94376301204196    2.25227637398418
O          -4.03232774643524   -0.25868456542177    2.75149228878770
C          -3.90721528853029    1.11494229249216    3.06354263788040
C          -2.06112354048598   -0.44744896214308    1.30401468130427
C          -2.23760622622939    0.83777927538806    0.61650651681544
C          -1.24112527592974    1.81347283015621    0.55146490603370
C          -1.61510006523860    2.96952370055386   -0.10821460734818
C          -0.84133263064582    4.14791907973464   -0.34279518758778
C           0.43936662458055    4.29384117021896    0.07361449435192
C           1.22299197228139    5.43787461808553   -0.25509288983840
C           0.71995476249317    6.50443309139314   -0.90990034610715
C           1.56250058523250    7.63020529370189   -1.26033256479242
S           2.44008606448466    8.37610597905190    0.03149721505756
C           3.15595759159685    9.53815167438370   -1.05483214407055
C           4.10502363416154   10.50787256268909   -0.66232533529204
C           4.42478627599409   10.95375764200586    0.58455788852572
C           5.74162914308221   11.59615046177987    0.82134303270566
O           6.51677370798812   12.01299370274063   -0.00580398650675
C           5.92601565012389   11.55303982630473    2.29433527830340
C           7.02790578209083   11.90243817147463    3.04109106796555
C           6.97551628590658   11.72847258395749    4.43048472461744
C           8.12534904330429   12.10626971175720    5.16347723687094
N           9.06995327553887   12.44442756476972    5.72033048264949
C           5.83188952663564   11.18462767793693    5.04169387987267
C           5.71901841368203   10.87024737792409    6.51092276203199
O           4.98897759326513    9.99810395043123    6.89033617846693
O           6.43299440909857   11.59382546784881    7.37423423947721
C           4.72346767544201   10.84210597404056    4.26712466077127
C           4.76144126227729   11.04280488483498    2.89948968347974
C           3.75261397556385   10.83414813974209    1.86183187780476
C           2.40148912233505   10.85543699734415    2.07213469105801
C           1.46156819287735   10.99726724693035    1.02724894647794
N           0.67418033902276   11.18141523356319    0.21388866022237
C           1.80403628724506   10.87205557825917    3.35003376479104
N           1.26639646292498   10.88336335945618    4.36314093882478
C           2.74457464968542    9.28894082086291   -2.34841921537602
C           1.83179573579993    8.22990234075567   -2.47792905423866
C           1.33260189525028    7.79063840375382   -3.78569068401163
C           0.87155494682725    8.75033321707263   -4.70274691936247
O           0.87168681389333   10.03504308860012   -4.27104861712769
C           0.21785444829419   11.01201396908091   -5.04780320204373
C           0.43277452984286    8.34889944420427   -5.96090064640418
C           0.45607048426794    7.01115176231511   -6.30164361945217
C           0.90587799732780    6.05235044380349   -5.41242924850515
C           1.34283399074813    6.43513469565929   -4.15004021293379
O           1.80986738019386    5.56433749205956   -3.20850843224611
C           1.82076541561992    4.18589513680726   -3.50378687223412
C          -0.78234884499592    6.60369933013125   -1.08828889576623
N          -1.14247524794063    7.49255778273656   -2.16072753121577
C          -1.58404010370842    7.00873827365390   -3.23360837353167
F          -1.95539795199218    7.82452648240548   -4.21191576580611
C          -1.69715244643924    5.55531565537788   -3.46084567627041
F          -1.83756662195856    5.12407786179147   -4.70857152342916
N          -1.60397421408039    4.72117656269276   -2.52463518399258
C          -1.48967911461225    5.23335620096450   -1.17479073665186
S          -3.25467612687654    2.85670902268912   -0.65098573686903
C          -3.41707352166734    1.23860517865867   -0.02321234463658
C          -4.67459658359444    0.60936778408517   -0.13933623280456
C          -5.00813948483108   -0.71186065488821   -0.04704097341567
C          -6.39017321603289   -1.08858051566416    0.34771905291134
O          -7.36082028454074   -0.37273700921141    0.38971354479476
C          -6.29868546593079   -2.52108846772768    0.72919152861893
C          -7.24959954982811   -3.33087379061280    1.31032611812375
C          -6.89723591758566   -4.64850309025151    1.62178570038185
C          -7.88598691897494   -5.48195644389815    2.20386462551554
N          -8.75796743494352   -6.08554971462385    2.63580540093736
C          -5.60860251770337   -5.13042531270161    1.33625383591407
C          -5.25517266560013   -6.52747883698131    1.75657204344263
O          -5.73109090407217   -7.04393447276412    2.72611241069954
O          -4.35798295603832   -7.16556446950158    0.99359940063164
C          -4.66142484532215   -4.30142415969432    0.74060593337668
C          -5.00777160993645   -2.99601328816831    0.43807082978014
C          -4.23361440500388   -1.91818336502064   -0.17133741665378
C          -3.11141489992549   -2.08400125445098   -0.94281194574248
C          -2.54425047632235   -1.04395125002490   -1.70669835553936
N          -2.07556721743041   -0.23362351821989   -2.36956233126973
C          -2.48006303070584   -3.32631060923901   -1.13377638423149
N          -1.94268918865947   -4.32557468130935   -1.31436176188357
H           1.35125199070255   -0.88681530114906   -1.31892714999282
H           0.45903906106613   -2.39883832417794   -1.03151531301682
H           1.63796373295118   -1.81152210604008    0.17793630303423
H          -0.00702126365888   -3.16589736309500    1.13055334081966
H          -1.67535311568803   -4.04287178044661    2.68938385123358
H          -3.54996080623491   -2.60515602653374    3.44333322313730
H          -4.41642749116458    1.73327472500001    2.32018938628256
H          -2.86192662175510    1.41964332486830    3.13595629550401
H          -4.39244331620595    1.25610540173350    4.03093962092462
H          -0.27197067688168    1.66994526693382    0.99059909135155
H           0.91854806925768    3.50849516483661    0.63604435582079
H           2.27811523638081    5.40987495492150   -0.02710907056657
H           4.73002298440175   10.89268144538643   -1.46294921097941
H           7.91416427969547   12.29959069160146    2.56955626972804
H           7.03421241162990   12.24236601016644    6.97933415659360
H           3.86884436768213   10.41005257017184    4.76449242613629
H           3.08868920554740    9.86985512546223   -3.18415441917503
H          -0.82114644983486   10.73387172953780   -5.24400144541087
H           0.73723518433375   11.18869699076225   -5.99535215179534
H           0.24234858236455   11.92069745986066   -4.44865245134258
H           0.06860912211122    9.07012660704711   -6.67276245317832
H           0.11180421175074    6.70448827288977   -7.27698236409382
H           0.90552918884841    5.01637460491480   -5.70709941146888
H           0.81297563349443    3.80462092485135   -3.69347800242718
H           2.21991223108426    3.70450361931992   -2.61255014319276
H           2.46754456825791    3.96343679000218   -4.35731575398052
H          -1.13160958065337    7.11436836897175   -0.17639206517682
H          -2.52448608991492    5.36522775290833   -0.82208250014812
H          -5.52410684666785    1.28038920264211   -0.23698743867185
H          -8.23881135026218   -2.95762876116484    1.52754043449548
H          -4.06489316320792   -6.66147628027586    0.22172516673498
H          -3.65390940657020   -4.65112582736631    0.56981599976596
