89
 SCF done       -188.850613390867          0.000536563427
C           5.63660394522909   -2.37887222002736    0.17968374707900
O           5.20308117458736   -3.68048104711786    0.55982617087514
C           5.80678720429897   -4.72716027598644   -0.08671565253481
C           5.58679581736619   -4.87711250878357   -1.49266878165525
O           4.73584063883606   -4.00595682137038   -2.11916936452869
C           3.37218237407501   -4.05536136850872   -1.71293668645766
C           6.23598173574661   -5.84361838737110   -2.26094527911633
C           6.10006116718844   -6.00771455504315   -3.67774831002982
C           5.44188788724714   -5.19462213077897   -4.58260519301509
C           5.51856406591416   -5.70094092491653   -5.87577983704092
S           4.91787848992816   -5.19329974429622   -7.40818317265133
C           5.64458381618721   -6.59894815393662   -8.18507166219036
C           5.59604257619622   -6.80919359675491   -9.58034300571137
C           4.73885943615966   -6.29463097171109  -10.50730224896808
C           5.15176484694769   -6.23612650985175  -11.93381235034258
O           6.09389945442168   -6.79035117986973  -12.44551665469591
C           4.19018642560975   -5.30264954204241  -12.57081666846933
C           4.18097983593503   -4.81700704170473  -13.86005346693320
C           3.15472662525930   -3.94300928544964  -14.23191770692003
C           3.17056902394346   -3.43535493457529  -15.55691056063042
N           3.30541720078909   -3.06142394299483  -16.63078769164227
C           2.16815790832491   -3.56352219916629  -13.30556842368073
C           1.06754144764448   -2.66144984452803  -13.78755288221564
O           0.73304712113571   -2.62934700107910  -14.93657865794053
O           0.47375265344981   -1.89287242399761  -12.86708708111905
C           2.18982026857000   -4.06635887076945  -12.00626077122864
C           3.20124418764856   -4.93900344058795  -11.63778225908544
C           3.44740015618689   -5.65664286210107  -10.38700073776384
C           2.50954554856263   -5.90525293346434   -9.41904783743670
C           2.68164847271112   -6.87732728008994   -8.41033604598775
N           2.76059756670045   -7.70359023011305   -7.61820472743999
C           1.24686141683153   -5.28238836092917   -9.37579478162705
N           0.22844056652520   -4.75955666850744   -9.29086860414819
C           6.34066870200232   -7.38352846055169   -7.27989813581831
C           6.24742192609672   -6.89709042774233   -5.98103636310501
S           6.84251638417543   -7.40105762499932   -4.43982446002345
C           7.06075130958877   -6.73362714530925   -1.52484266745012
N           7.78148614644397   -7.76150492416364   -1.92292012028940
O           8.33399014346815   -8.27758529479836   -0.82995612122361
N           7.99962012218708   -7.62187208192052    0.27599813628379
C           7.20133940249051   -6.64385835610876   -0.09869802787148
C           6.57774848277612   -5.61838604327299    0.65905910104899
C           6.80258710776092   -5.54061193528503    2.07182905357486
C           6.22123943901166   -4.68853675928237    2.99281564354364
C           6.72206230508777   -4.89971718902795    4.27314040134451
S           6.44059707318046   -4.17794585988587    5.81083597526309
C           7.61973262323307   -5.25466495642122    6.55615322462013
C           7.87969255836743   -5.24065095588184    7.94521103259278
C           7.65117251552563   -4.24265125354117    8.84366458464925
C           7.53110917259504   -4.55560222206978   10.29088843980971
O           7.83678194775202   -5.58189277876256   10.84795862147667
C           6.89448167718684   -3.35363570572933   10.88612868990752
C           6.43682381746017   -3.16067874410929   12.16953778012734
C           5.82724084141517   -1.93882375979517   12.48481740011291
C           5.37598541470660   -1.78036947129939   13.81666469727629
N           5.04376759544529   -1.68790904526800   14.91114068876518
C           5.66722263633781   -0.94354148703329   11.50450360006541
C           4.94467204853026    0.36200498559414   11.71982172264612
O           4.44195873265056    0.93537223696471   10.79459943609470
O           4.89334249059210    0.86845787116762   12.95181541773663
C           6.14327317821812   -1.15740404186411   10.21060448262532
C           6.76989880863127   -2.35141983011974    9.90472119743538
C           7.39182561312807   -2.82834846889787    8.67078256722830
C           7.90920886234455   -2.02623340639804    7.69077651457345
C           8.76427643832255   -2.50781202236189    6.67544819896892
N           9.50530151513094   -2.85677029657427    5.87207677547668
C           7.74689343636603   -0.62506319075217    7.65122853558399
N           7.64821301257926    0.51453497536975    7.56873481903213
C           8.15969128781204   -6.14184633310341    5.64033287798583
C           7.67872947848636   -5.92488310028434    4.35342922219267
S           7.96170374307419   -6.63395337920532    2.80421699906459
H           5.01143505010720   -1.68718543137701    0.74043772437355
H           5.51629810539471   -2.20060160938197   -0.88986279415869
H           6.68472845818451   -2.23486552366650    0.45783813193497
H           3.25462031283763   -3.90021580648709   -0.63974429500592
H           2.93131821296793   -5.01658712070192   -1.99297197756082
H           2.87660489004053   -3.25390391254044   -2.25686518215370
H           4.94418909788660   -4.28432711559657   -4.31130389751998
H           6.41021846158511   -7.40127191555117   -9.98878104869367
H           4.94203526475716   -5.10972826583214  -14.56723211152014
H           0.83021718524989   -1.99575438188177  -11.97455637433513
H           1.41430971772991   -3.80519582490190  -11.30105174104011
H           6.85695940132762   -8.28236111649478   -7.56268283274862
H           5.47255569853755   -3.96269722758880    2.74268081126633
H           8.23431630375455   -6.17620945552991    8.36734211978946
H           6.54103316443476   -3.93243766590140   12.91725349820385
H           5.28007683385156    0.31830083317287   13.64898704460263
H           5.98790965624097   -0.38115759111087    9.47718070164752
H           8.89443513752721   -6.87992712861531    5.90440946715404
