87
 SCF done       -173.521785131440          0.000647883970
C          -1.57024905812051   -2.32520203824307   -2.18561301044653
C          -1.31676545088994   -1.35158855632345   -1.09060863122256
C          -1.01905045592121    0.00536048194346   -1.31020607301175
C          -0.85227753731476    0.71188712202299   -0.15492533882900
C          -0.58916017111002    2.17722919180128    0.02149769605895
C           0.91494245153094    2.47512709510113    0.06414305944039
N          -1.13137556739152    2.46611601635883    1.35973424295241
N          -2.10223044788101    3.12658149620881    1.61936573326078
C          -2.97389272411999    3.82493152958481    0.66549314023564
C          -4.34755399620264    3.12998061863125    0.74171428656814
C          -3.08302972870582    5.24927262356478    1.14030205491016
S          -2.87497158211291    6.53500349836958    0.01569573800746
C          -3.23307831132539    7.72049298015080    1.24156538974912
C          -3.19914621150834    9.08780017071523    0.89298582078739
C          -3.69601896720439   10.17227322125209    1.55248923725003
C          -3.18105632098103   11.51930428214888    1.19204645494183
O          -2.50829279396656   11.81230213703159    0.23323998667894
C          -3.62458378857592   12.40838278463194    2.29263156623217
C          -3.31803567146913   13.73155396555798    2.51269320111727
C          -3.82397221542017   14.35107220923211    3.66298804985433
C          -3.49286760580055   15.71450421475186    3.84751112402077
N          -3.21600650624561   16.82399421085452    3.94227081734690
C          -4.60269071739198   13.62573579561229    4.58154958868804
C          -5.10614404596220   14.17383007778983    5.89261041949571
O          -5.32264455740975   13.43764385062756    6.81358601315953
O          -5.31838230464731   15.48602774899211    5.99551936467682
C          -4.90603659522440   12.28611391740594    4.33573361348468
C          -4.43640169231046   11.68152265739743    3.18370994000877
C          -4.62556101745287   10.33078460220207    2.65019105744756
C          -5.67718177060750    9.51321447398828    2.96498557507967
C          -5.99357433525795    8.33586232869994    2.25604897410506
N          -6.30525621457243    7.38718140851770    1.69111733328439
C          -6.62805880859724    9.80449906272053    3.96748969932415
N          -7.42938937099000    9.98888628701230    4.76680339408708
C          -3.45243171779312    7.09982436167421    2.45561879086301
C          -3.36518827619049    5.70139778374585    2.41311219297735
C          -3.59354869188375    4.85556879503682    3.62076460439468
C          -2.43926636776485    3.73671728737956   -0.71673849211935
N          -2.84904223415345    4.29088574259343   -1.82193865353819
O          -2.01441304617292    3.88300925940621   -2.78190225834275
N          -1.06506651699386    3.06645543825369   -2.30522142435940
C          -1.29344212422917    2.95118339659498   -1.02832169898785
S          -1.06628754429095   -0.25375976673081    1.25159387650916
C          -1.42445456249569   -1.65140841832943    0.26021880020256
C          -1.74677860193090   -2.90547661343748    0.82768420765801
C          -2.27491328748096   -3.16286872997407    2.05509471891515
C          -2.15850178882949   -4.52393447462519    2.64263816664885
O          -1.82525295302596   -5.53519900692873    2.07480882238982
C          -2.48903631163093   -4.35113587310815    4.07888292135828
C          -2.42355740248044   -5.27109155760250    5.10270589707682
C          -2.75418179181707   -4.84917602184105    6.39447168474580
C          -2.71673786177569   -5.81044854697670    7.43725768821937
N          -2.69318881397832   -6.66406702886142    8.19978674182684
C          -3.13774522862709   -3.51915240012297    6.63599927169673
C          -3.41176673397901   -3.10283194001918    8.05433558091669
O          -2.84463871082066   -3.60148097929888    8.98287699877144
O          -4.31841813700853   -2.13423093960969    8.22420859196126
C          -3.20022170657805   -2.60119580168868    5.59063957470074
C          -2.88782438638465   -3.02112043387329    4.30800158519474
C          -2.92082810077809   -2.31077470410667    3.03055499232825
C          -3.69247030703623   -1.20685995748804    2.77945324335270
C          -3.95392898572167   -0.69299301310175    1.49312806559701
N          -4.24680515047759   -0.25476923967340    0.47290111125386
C          -4.39826431560032   -0.51398290847292    3.78367539407208
N          -4.98307750569281    0.06924462085459    4.58071422199276
H          -1.21486995594473   -1.92681995096881   -3.13168071426284
H          -2.63924203808058   -2.51902374758284   -2.27328051623804
H          -1.07442203472555   -3.27370832035774   -1.98763510788612
H          -0.92628870868333    0.44900789072133   -2.28568132902845
H           1.36817870395340    1.91962303320581    0.88067225828415
H           1.07978942070839    3.53830058642319    0.22485814154166
H           1.36655308440676    2.18269133754817   -0.87985768902493
H          -4.69889410559877    3.11956534404328    1.76824748792194
H          -4.27296946418506    2.10385541062602    0.38343204894453
H          -5.05196166786102    3.67644696421808    0.12044355583735
H          -2.63999707198564    9.32929270200132   -0.00649680983300
H          -2.69999927010651   14.27975111119634    1.81771618071934
H          -5.07045336253729   16.01287653705727    5.22143050046846
H          -5.48980299236740   11.75682482932507    5.07301998960831
H          -3.62975180357543    7.63998918251707    3.36906730961226
H          -4.66326603138671    4.70055975410100    3.76174568107921
H          -3.21279925540577    5.36514465318150    4.50275253295514
H          -3.10292725368364    3.89263184086835    3.52474346363665
H          -1.48905108947260   -3.78230101364388    0.24087491964945
H          -2.12411734324056   -6.29064969963003    4.91331396719404
H          -4.73406236366927   -1.82422323118844    7.40748617667963
H          -3.44147214182977   -1.56656500942097    5.78503321563878
