94
 SCF done       -187.269964748167          0.001582170473
N          25.30295190871813    5.18921933396927   10.34562957202109
C          24.52891260491136    4.56704968814204    9.77000433380004
C          23.51620413325961    3.83380842845539    9.11783631723255
C          22.23446943330165    4.22408874518508    9.55560923237658
N          21.21765058193673    4.61073662703744    9.92311705768855
C          23.74769981051074    2.94219723473780    8.09842614107992
C          22.76907646075669    2.22247491401308    7.32964285096415
C          21.48659611775817    1.80669984865269    7.61305367628837
C          20.84560336194421    1.74137565777923    8.84588333397091
C          19.52432024037107    1.36105676511559    8.98455311900673
C          18.79971799578647    1.22834061368613   10.19159092792881
C          17.50673178904124    0.82699041237445   10.02365371466919
C          17.14766575578037    0.62903140265194    8.67309363518907
C          15.94185627408416    0.19120001602962    8.15359153477691
C          14.77412139788558   -0.20540946567025    8.84644464151140
C          13.77954398104255   -0.65228351782294    8.03334318540841
C          14.09673515298092   -0.62456629552986    6.64728618361123
C          13.32447119055547   -1.12462184394829    5.63480113208591
C          13.64026215980564   -1.11534626406534    4.24849599174633
C          14.46508667473788   -0.15431167752559    3.61826183697414
N          14.80219062413454   -0.22065447819628    2.36085908175807
C          14.34587488402954   -1.25659564393855    1.64153373958081
C          14.80209950206773   -1.41685651037295    0.30887407644407
C          14.46353529155388   -2.50923842672368   -0.43801410044366
C          14.92661849770031   -2.82671372815990   -1.74452457155529
C          14.49207417137787   -4.02802409697340   -2.20195440662459
C          13.65081961595959   -4.70890408144532   -1.28655240036444
C          13.10149937872035   -5.96109482030709   -1.45786152432306
C          12.27298691051975   -6.67742337174371   -0.56724048489664
C          11.94391198793715   -7.92213516965753   -1.00666847549750
C          12.52078073353433   -8.27555159119321   -2.25434242150598
C          12.31276893871502   -9.48256248029829   -2.89800231004924
C          12.84733932297327   -9.97400148034672   -4.08635761004187
C          13.95254195943696   -9.61712804098330   -4.83713525478077
C          13.98910600928437  -10.03419821117588   -6.26146874590763
O          13.22118994411146  -10.77910297983342   -6.82480694282725
C          15.14568127199607   -9.31458868856307   -6.85286478508248
C          15.57545673202534   -9.27752984056706   -8.15982303549965
C          16.68418670609762   -8.48142388452401   -8.47084086988120
C          17.14376601121964   -8.47832083294419   -9.81205996461954
N          17.46296697327176   -8.57098775271848  -10.90797196035442
C          17.33138070375975   -7.73965785784871   -7.46972780139364
C          18.46364043852028   -6.83975833059492   -7.87078613455427
O          18.52244186088496   -6.33282075291588   -8.95453787187982
O          19.40715729851382   -6.61804935071307   -6.94644701397330
C          16.88789141049989   -7.79760420543392   -6.14890990067145
C          15.80169790371382   -8.59679144739191   -5.83740736941743
C          15.14964562255183   -8.88857599276099   -4.55769722338174
C          15.72700866046927   -8.67389716498616   -3.32278113939533
C          15.24103662878232   -9.24237931079457   -2.13127443166550
N          14.87895668429497   -9.70980286413990   -1.14688773434982
C          16.92592041064156   -7.96246419697567   -3.14199949895373
N          17.89268529987919   -7.36668436882920   -2.96601899978107
S          13.43965026092587   -6.93225155041068   -2.87891616539453
S          13.41521523549644   -3.76586054037726    0.17600439890410
N          13.47481043865690   -2.16692411748322    2.11577343607581
C          13.12068075464314   -2.09081110244531    3.36914369462091
S          15.71584775055739    0.02730790444229    6.43231047379377
S          18.49964159578303    0.98473352199842    7.62295647424956
C          23.38501124934471    1.82000982290893    6.04598755203138
O          22.83284838271659    1.31267630890383    5.09514859351187
C          24.82887243885769    2.12773645856052    6.19434406356635
C          25.86467529023316    1.85111314218864    5.33091195116285
C          27.16328028580727    2.20508445973149    5.71551935827681
C          28.22540181365856    1.87969579465742    4.83689500337977
N          29.03631013615767    1.56100144634354    4.09308803057274
C          27.38720016112397    2.81282747528270    6.96035509179062
C          28.75857103148372    3.17343387193991    7.42021669933680
O          29.09047781257474    3.19595843101184    8.57581989427259
O          29.57503059932254    3.48461618691246    6.41294045993775
C          26.32901255861868    3.08151047150076    7.82786417896601
C          25.04360319422898    2.75216776502641    7.43800084999996
H          20.95012165739597    1.40501302768899    6.75729543167391
H          21.38722536456745    1.96194071069936    9.75360064201317
H          19.25588599694558    1.43550936752679   11.14293598207397
H          16.81193761986172    0.66929331850308   10.82870089737277
H          14.70930458154182   -0.16688106923801    9.91874279060232
H          12.82484542036554   -1.00766520942418    8.37843191690986
H          12.41307915939535   -1.63473751538180    5.92132724378726
H          14.81781140572761    0.71690215099597    4.15432338561303
H          15.47147013273375   -0.66762261117468   -0.08291951546228
H          15.57631031562877   -2.15976128230982   -2.28257655473779
H          14.74736075829697   -4.45455868316247   -3.15673765858110
H          11.96016395747284   -6.24398029929217    0.36594130842211
H          11.33047538783381   -8.61883021522394   -0.46439999032580
H          11.56203827644053  -10.10920466733570   -2.43173382364550
H          12.26525282128438  -10.76234793562138   -4.55723427392797
H          15.07055432929596   -9.84569317043779   -8.92613173271916
H          19.27092472316550   -7.09457332374000   -6.11572802842514
H          17.35820405159272   -7.19174032314124   -5.38886566331496
H          12.42590013477904   -2.84361862806252    3.72179741761528
H          25.67999034860978    1.36983109735332    4.38221131369783
H          30.46233567910111    3.70196449864002    6.74117907463282
H          26.55112147421566    3.53089633618385    8.78312547485567
