103
 SCF done       -227.511859211495          0.000930583186
C          -3.49706333174339  -13.26309478857506   11.96833355652777
C          -4.25329442198835  -12.08938690533631   11.98269674409635
C          -5.30854716882280  -12.01968894807978   13.05927423481550
O          -5.24782167128062  -12.73995988282364   14.01542131531021
O          -6.31553333588674  -11.15832312407329   12.91439088299305
C          -3.97841087802601  -11.06428411061430   11.06071599931211
C          -4.69837771520230   -9.84690572022196   11.01701408610663
N          -5.25866151230213   -8.84918845353051   10.92699710055956
C          -2.94386903052574  -11.20756479853278   10.12716120942586
C          -2.22160680685121  -12.37843962215091   10.12511287831709
C          -2.48870291863597  -13.41936438387350   11.03336154247550
C          -1.56025783913499  -14.52147421346995   10.77144372570641
C          -1.52513414683315  -15.69946077536368   11.46644405999845
C          -2.40630093329059  -16.03290587988306   12.52067661162990
N          -3.08918286056303  -16.38421817355897   13.37213495413198
C          -0.61857806532429  -16.75939996880035   11.24217533662755
N           0.08452035431977  -17.65921620356869   11.12624323515420
C          -0.71542322027377  -14.11998336102003    9.65983156260915
C          -1.09849682713984  -12.76863354512757    9.24919178230870
O          -0.60818786631644  -12.08772113569484    8.36598214801745
C           0.24917926445965  -14.89050876343782    9.05657816507765
C           1.08808759844592  -14.60878626115247    7.97020667541038
C           1.97363818264185  -15.56946247875068    7.45771683369926
C           2.68883558559698  -15.10583644054322    6.37353744345477
C           2.36632854356205  -13.76092666300334    6.05578587329641
S           1.17967086226383  -13.09014113692460    7.07652320170517
C           3.12600443474042  -13.38590009682052    4.92785027061063
C           3.91812473950069  -14.48150536449361    4.51669667775301
C           3.69608752015813  -15.58536683140831    5.43833458160204
C           4.33362447436599  -16.78905800946227    5.45314544572820
C           5.38281356113466  -17.10692109282503    4.56148036796584
N           6.26616861159561  -17.36197749875904    3.87790336815947
C           4.02248692408309  -17.78651011532295    6.40351989424506
N           3.76730439271893  -18.59864967977019    7.17104430435066
C           4.64972420644399  -14.22555773911288    3.36551435167562
C           4.44193492897243  -12.92804444996914    2.90687377582750
S           3.32662597439719  -12.02226171058944    3.92034259749842
C           5.00257991014989  -12.35921807731994    1.74810221537415
C           5.67891087582716  -13.04158473324597    0.72479039666166
C           6.08625246729504  -12.17057418395945   -0.33941513789540
N           6.74876824016531  -12.62124168332112   -1.40362951542461
C           6.98479123161849  -13.91431795146499   -1.45315820325291
C           7.74954522689678  -14.42102869512082   -2.62267411697593
O           8.13064251394180  -13.69284275755522   -3.51344964419419
C           8.01459233802139  -15.86999780985087   -2.61020045841757
C           7.55380203876454  -16.69979858167255   -1.66859033535721
C           6.71641294537091  -16.26676450944074   -0.53447030678869
O           6.20090364492512  -17.04734602071111    0.23276142914864
C           6.52691605545170  -14.79453191117226   -0.42267029392383
N           5.90136521990763  -14.35599572845987    0.64748260075461
C           5.72503672057330  -10.83274489447827   -0.13961768998604
S           4.88705251379717  -10.66529728528474    1.36763377017024
C           5.98253517608457   -9.79324623943406   -1.04805726477321
C           5.72032444793421   -8.43509872577351   -0.89843597034306
C           6.09064846792947   -7.72026578116697   -2.02768820769354
C           6.62591177024007   -8.54410101994283   -3.04376838377912
S           6.70230784810306  -10.19321704827018   -2.59880355481996
C           6.92039807495955   -7.73031623908113   -4.15926453232291
C           6.59716006215618   -6.38973751837246   -3.85015093318580
C           6.07139913679420   -6.34246502526535   -2.49668723672582
C           5.64764134826924   -5.24443103644829   -1.80886682156493
C           5.68949296212414   -3.94715357549378   -2.36396782871872
N           5.72960346643313   -2.89199323609077   -2.80958061315499
C           5.14907258263011   -5.33749565616990   -0.49167383655198
N           4.74739148752528   -5.41883828000876    0.57889499567726
C           6.84490500829826   -5.51939074611924   -4.90275668099638
C           7.30104516480392   -6.18167674616724   -6.03533885899765
S           7.49753567070960   -7.91196267996211   -5.74795116235777
C           7.63849177176341   -5.57683609107665   -7.26509328973688
C           7.73869085267119   -6.14431753721732   -8.49989327460162
C           8.52027323836460   -5.46110459676039   -9.56784278336298
O           8.93764656243856   -4.32975048357851   -9.55072444420432
C           8.71253279852774   -6.48931250231816  -10.62022264986884
C           8.00084342422259   -7.65152942932012  -10.26995045401676
C           8.06743454051987   -8.77651496609440  -11.07484993126471
C           8.82105934383030   -8.72586430713563  -12.24491618596190
C           9.51284718547114   -7.55463602592761  -12.59654308394909
C           9.46212871208393   -6.42385532235438  -11.77469533770579
C          10.25745517308606   -7.46886822280584  -13.80115905653843
N          10.84822378592410   -7.29154313589330  -14.76559242490246
C           8.96859300915487   -9.93562208606312  -13.12531986073618
O           9.97407698542689  -10.15781271600414  -13.73538423117676
O           7.91649741705219  -10.75930293463626  -13.18271249548400
C           7.25255686325654   -7.39404379645597   -9.04016732948240
C           6.10118054821206   -8.04914405621202   -8.68625108111594
C           5.23186032155035   -7.61219463613912   -7.66558498989424
N           4.48246234255901   -7.26539215998610   -6.86865025473548
C           5.60731545398307   -9.15847361253363   -9.40170169134995
N           5.19166813295514  -10.05800600881249   -9.98079459842537
H          -3.73260596560947  -14.01618417703412   12.70414238899437
H          -6.26784229764487  -10.57816512033261   12.13980188473185
H          -2.72036751260262  -10.41761309937654    9.42599328822696
H           0.39522628067328  -15.88801567163934    9.45279505962261
H           2.05347065404440  -16.55543791716849    7.88056647338910
H           5.29250668886483  -14.91645903277782    2.85003498613501
H           8.60842063373591  -16.23265793353767   -3.43833680835994
H           7.75720546633389  -17.76140965431883   -1.70539864473377
H           5.28202776530046   -8.02299497954637   -0.00712916098919
H           6.66992771347713   -4.45869899267879   -4.88648189712995
H           7.91877870098706   -4.52877446769510   -7.21249936434508
H           7.58209533458694   -9.69412145527939  -10.77694331401582
H           9.99637488152104   -5.52385214685879  -12.03848727494291
H           7.14745896695444  -10.46704801710534  -12.67344277926306
