93
 SCF done       -208.852677295804          0.000612086679
C           1.18526559241066   -0.14307031441942   -0.19908369650179
C           0.97110369331231    0.83456856759549   -1.15765194396594
C          -0.04133707659337    1.79007382687333   -0.81981608272856
C          -0.46412650499272    2.85434462269025   -1.57268085946007
C           0.04265113501174    3.19956194298748   -2.84215741708963
N           0.39808502678797    3.54776097749262   -3.87524190931060
C          -1.48183390290023    3.71385998764768   -1.10365642435743
N          -2.30745576556680    4.41548734110188   -0.72957512005009
S          -0.74182632436550    1.45316699855850    0.75052613264519
C           0.30893301520316    0.02021008358452    0.98385442076632
O           0.25371071998503   -0.64643768253120    1.97529825455824
C           1.66234441066267    0.90860835154735   -2.37795004501150
N           2.24127417051981    0.94227003054458   -3.36870019356237
C           2.10610744366346   -1.21358030593335   -0.24428797045353
C           2.26452609112951   -2.22268633206993    0.70685912574898
C           3.25722891300447   -3.12121890389103    0.35803249627828
C           3.87623467549928   -2.80137787191614   -0.87688426073472
S           3.22742036507463   -1.40519489536402   -1.60049965474462
C           4.86666311289189   -3.76301273917946   -1.14421043110496
C           4.89019259063319   -4.70276176055075   -0.08696574811509
C           3.85658720370293   -4.34189457902410    0.87495292602370
C           3.48908938827020   -5.03755451423008    1.98659493753765
C           4.06137861068692   -6.28351494996356    2.33079141600451
N           4.47757115114069   -7.31654650287120    2.59918423423233
C           2.46497642324789   -4.59606758263974    2.85462320265789
N           1.63946478748527   -4.25441980192036    3.57177131134663
C           5.86350753018628   -5.67721453198217   -0.24710628903472
C           6.57411169968153   -5.49945215627150   -1.43336139935242
S           6.02817555596169   -4.10272564618677   -2.34920684724949
C           7.61725179245437   -6.31122536561527   -1.91118438008703
C           8.23726384659022   -7.37946684822648   -1.24437496752590
C           9.25436004789008   -8.00764204794702   -2.03772579781707
N           9.94068657037291   -9.06022346483600   -1.59816732027339
C           9.66954676450368   -9.47951976980814   -0.38024012670101
C          10.40416664966006  -10.67635439839667    0.10554446461257
O          11.22876368441056  -11.25150510473988   -0.57128157179909
C          10.04463648254898  -11.11630226390724    1.46506194587237
C           9.17497533252506  -10.46999527864880    2.24811875912201
C           8.47912639393463   -9.23232485388274    1.84981185015010
O           7.79936350990058   -8.58915848631521    2.61603052713710
C           8.70369132592095   -8.81444809831190    0.43808399479548
N           7.99469877529132   -7.79687054132913    0.00100405350350
C           9.43029456932838   -7.41374664942295   -3.29543896869777
S           8.32787708987198   -6.09210967824185   -3.48612370886556
C          10.36051372808844   -7.82333790501871   -4.26209107143735
C          10.57332560148436   -7.27347522383806   -5.52247051439889
C          11.57732107366586   -7.94239657020985   -6.20378716005830
C          12.13440257075857   -9.00707618089751   -5.45614228498317
S          11.41856605093063   -9.18269112894297   -3.91457142678385
C          13.14688360493299   -9.61349024166207   -6.23728644564022
C          13.22415379475958   -8.93806935391813   -7.47552097429765
C          12.25280044751644   -7.86053608354913   -7.48800015855658
C          12.05679616300543   -6.94604214572439   -8.48071767382671
C          12.82369714432616   -6.97577366185306   -9.66491897667531
N          13.45759786335178   -7.01919058099131  -10.61931986152590
C          11.08806984282309   -5.92559136384678   -8.37753029130255
N          10.29350855025198   -5.10442237257046   -8.28675010980855
C          14.21049005893713   -9.44255084273709   -8.30846504186186
C          14.90428863977010  -10.49332519242062   -7.72239239364813
S          14.28241137353747  -10.87641663479613   -6.12247878256533
C          15.95705048912400  -11.25724748972108   -8.27381220827671
C          16.76342592803509  -10.93998562964087   -9.32441166275849
C          17.48984917411203  -12.03754842830124  -10.03043822673814
O          17.64138199607224  -13.16872077144209   -9.63521080050634
C          17.91077647640191  -11.45406887363978  -11.31878889588503
C          18.48568311348106  -12.06855606881713  -12.39416415444883
C          18.76148433267710  -11.30797506874884  -13.55265931414251
C          18.42746565462703   -9.92214490631471  -13.57736895381687
C          18.69159171802868   -9.17326852522469  -14.74168445972771
C          19.26457120839906   -9.77063934803824  -15.82920700951449
C          19.59754429662202  -11.14044582259796  -15.80287507512265
C          19.35200341673099  -11.89404928861042  -14.68930656641047
F          20.15690559529861  -11.69941666568985  -16.88323417499314
F          19.51567823634737   -9.05875007952409  -16.93421864715282
C          17.84188016050739   -9.31062173844747  -12.44549874409941
C          17.59683856029972  -10.06485606693120  -11.32962035458666
C          17.03131724771519   -9.70452427644733  -10.03209993996972
C          17.01832215854538   -8.43666621263345   -9.51284137828530
C          16.66627519111623   -8.13177021543636   -8.18352535241537
N          16.40402534325839   -7.83924130382351   -7.10469101634456
C          17.44156677743421   -7.29402456296771  -10.22547545846658
N          17.77994354360493   -6.33569011460310  -10.75721690438380
H           1.66804594509367   -2.26882909630074    1.60058221565762
H           6.08491701794982   -6.48151720623140    0.43187321698565
H          10.55014542855959  -12.01059255782926    1.80375614213753
H           8.95025468908714  -10.81758489490950    3.24735105341544
H          10.01279736016430   -6.43383016201466   -5.89315312356063
H          14.39859318423665   -9.10224191023555   -9.31022353037098
H          16.10554171003219  -12.25043743917398   -7.86165372543066
H          18.72341261251995  -13.12092116783873  -12.36358423598397
H          18.44582070603007   -8.12343501790704  -14.77671315589736
H          19.61200916831514  -12.94098306704621  -14.68607853789296
H          17.58671848469170   -8.26401934944386  -12.49349477200584
