97
 SCF done       -200.286325454911          0.000904793482
C           4.62272994793736   -7.67916979899266    6.25536307451972
C           5.24711288247844   -8.03770827426418    7.44568909242864
C           4.34253472250201   -8.35581499903939    8.50248054620565
C           4.65308450548024   -8.74714486716526    9.78126026659142
C           5.96314272543710   -8.90293196517261   10.27412754589704
N           6.99696179046161   -9.05023850122577   10.74899694056129
C           3.63967894254274   -9.03341848121680   10.71920727390441
N           2.82149471737965   -9.26839139269569   11.48785735298669
S           2.66548115237542   -8.19745308866048    7.99492086858338
C           3.15484401880990   -7.70478231874433    6.35565505224150
O           2.37317475269293   -7.44041324681905    5.48210745995045
C           6.63739197010568   -8.08972331723131    7.61958519662818
N           7.78128445951786   -8.12171118514939    7.71555204953117
C           5.18378758932707   -7.31475245662523    5.02113395390848
C           6.53694035477676   -7.21755722405954    4.66739050248379
C           6.73456661683190   -6.83783848881915    3.36137483710093
C           5.51509354997165   -6.63405883052293    2.68511481277151
S           4.13786076899853   -6.91296909359992    3.67055094617240
C           5.61394887671555   -6.24707800871158    1.34004628151048
C           6.91372394856391   -6.11290127672826    0.82413288984511
Si          8.18038328521639   -6.50520666469194    2.18068566028182
C           9.20795808748100   -4.99207665295646    2.68844403379722
C           9.20367535685094   -8.06225003855441    1.81856498807993
C           6.89718457874163   -5.73349362999814   -0.50227597905741
C           5.61111189165387   -5.56848362513150   -1.02178492883062
S           4.38994820385574   -5.89645037400127    0.17777213660461
C           5.26518020701013   -5.17918681880635   -2.34132544973273
C           3.91770378776016   -5.01488144760912   -2.73764595314539
C           3.54411474154448   -4.59913200940387   -4.05586035272300
N           2.23888548527331   -4.46429270312980   -4.35705893977126
C           1.33982686301577   -4.70678666393440   -3.45866179299943
C           1.70945536194459   -5.11485981181957   -2.15133225152605
N           2.95397465462626   -5.25724950365331   -1.82772859638184
F           0.79139640240369   -5.36565503291908   -1.22552448239571
F           0.06353451559827   -4.56756663713601   -3.80128452791248
C           4.49351161219374   -4.32378223037411   -5.06897190345806
C           5.84649524125790   -4.50628267300000   -4.68736794697139
C           6.22401627600459   -4.92052571716617   -3.35294150267522
N           7.54762311653070   -5.01700324512014   -3.22870577625738
S           8.24533471863418   -4.63366183443859   -4.62205279979198
N           6.91493647254970   -4.32319534131702   -5.46285645295031
C           4.10034454505364   -3.88615377378860   -6.35802466424236
C           4.92676472478923   -3.61475271832224   -7.44996074632016
C           4.24245427209811   -3.18007876387274   -8.56819378656832
C           2.86248848519919   -3.10884398336947   -8.33014653837214
S           2.42246859492361   -3.59478113268363   -6.73986741569685
C           2.07491623280503   -2.64618453883350   -9.39888037632168
C           2.74184584840771   -2.33403912506719  -10.58888229412210
Si          4.60196367233576   -2.61538206306081  -10.34220488982273
C           5.58979835834202   -0.99753873387768  -10.42415144242916
C           5.28474439874963   -4.01078434470721  -11.43553653604620
C           1.86755591902523   -1.89029396466607  -11.56429456881880
C           0.54527479650382   -1.80599825773193  -11.13679901060974
S           0.38376334493924   -2.36458134519977   -9.48413097914815
C          -0.55925704051142   -1.40624005022804  -11.91703564960327
C          -1.79154080087070   -0.99331790505669  -11.50171071380179
C          -2.95686410908379   -1.09459827510108  -12.41852939201529
O          -2.92857126024033   -1.29265419622656  -13.61151589771283
C          -4.14364998292641   -0.96703673577501  -11.54544454181198
C          -5.46295896137268   -1.11807565296354  -11.86056957692969
C          -6.43237462587726   -0.98478907225405  -10.84062207956931
C          -6.01343680904814   -0.70139483062875   -9.50806825049961
C          -6.98544086593877   -0.58169028288034   -8.49473047103471
C          -8.31121124836709   -0.73178598557162   -8.79060805625725
C          -8.72474548674455   -1.00867975573067  -10.10902216152319
C          -7.80621858084896   -1.13266574443145  -11.11349450852052
F         -10.03137129921129   -1.15138724468455  -10.37063219263932
F          -9.23383773192361   -0.61683721123895   -7.82622829247202
C          -4.64017709367579   -0.53900905401983   -9.21324979338101
C          -3.72106379634463   -0.66391722450812  -10.21930841461570
C          -2.26798629832977   -0.52025659065991  -10.22160244726039
C          -1.54426222501317    0.19919883584424   -9.30547847633852
C          -0.19540756925142    0.56075767879197   -9.49869580926520
N           0.88663025418139    0.91283512415467   -9.65286130609731
C          -2.09317105405299    0.73918152391951   -8.12566175115803
N          -2.49306737663112    1.19072238282055   -7.14910491313134
H           7.32841950702456   -7.42444064791265    5.36319151376240
H           9.92783806391102   -4.73882663385959    1.91690631067502
H           9.75901274728204   -5.19282408450691    3.60151109780699
H           8.58287727753027   -4.12115112335263    2.86100380678793
H           8.57575786667874   -8.89592607989089    1.51912794561192
H           9.76207328567707   -8.36484231818558    2.69851915385259
H           9.91693626576382   -7.87816189034485    1.02172539823400
H           7.77084936015362   -5.57111537847241   -1.10519626630667
H           5.99179454136034   -3.73983255797184   -7.39144114502216
H           5.12064399518867   -0.21628160646132   -9.83384776305705
H           5.66261184449278   -0.64283933606822  -11.44721629128585
H           6.59895302617408   -1.14071297018967  -10.05131584460714
H           4.68359635161126   -4.91192551944989  -11.36223455753025
H           6.29943344059384   -4.26242722789712  -11.14511220525102
H           5.30634902798799   -3.70792919904632  -12.47733577629621
H           2.16227274887012   -1.59223090109736  -12.55464680598305
H          -0.44275022906313   -1.51423540075115  -12.99144762639249
H          -5.76462967800995   -1.33806769619620  -12.87330395418402
H          -6.68583790397341   -0.36650861411283   -7.48094899789373
H          -8.13922164602171   -1.34544950373375  -12.11727059381293
H          -4.34651827511282   -0.33194882847239   -8.19635358046047
