83
 SCF done       -187.541516030374          0.000409754560
C          -5.17249201745802  -22.74512123632536   -0.37117877908074
C          -5.95166005327399  -21.60056958421438   -0.49881401733663
C          -5.43274845067700  -20.27893540194237   -0.24818983390891
N          -6.23412334498741  -19.21960028915585   -0.44237921198030
C          -7.45887830867958  -19.40640739564591   -0.83011582671956
C          -7.97973024710355  -20.70492889174712   -1.03932336885403
N          -7.24632200717207  -21.75623198771625   -0.87914682186195
F          -9.24840015766200  -20.87735509998420   -1.40941037156899
F          -8.21119255225804  -18.31581347793302   -1.01371535925952
C          -4.07689123367539  -20.07644878339055    0.14440427375457
C          -3.29116467226498  -21.26460372901778    0.22599328381810
C          -3.83849150305524  -22.57997044694033   -0.01486766268281
N          -2.91899819845630  -23.53831800072715    0.14239736512305
S          -1.52366084273480  -22.85628620541249    0.54464103579311
N          -2.00261180069816  -21.31669638118066    0.54755612973212
C          -3.39995777997705  -18.86981575169157    0.39207792714645
C          -3.81865515882248  -17.57021451574383    0.62018826796545
C          -5.07157932739111  -16.98349507096029    0.86802764474597
C          -5.01904413489483  -15.63726718067603    1.12205229871219
C          -3.72550897030134  -15.09593452408644    1.07733504024802
S          -2.56429281629030  -16.33773099077231    0.72901589257868
C          -3.34664279223609  -13.76122003801278    1.27084023983697
C          -4.17326861157633  -12.68013788885871    1.59798857567550
C          -3.48269754262280  -11.50114837543986    1.71955572807063
C          -2.09935638078754  -11.60750493085732    1.48378979109835
S          -1.68523017909559  -13.25946818114491    1.10996450609495
C          -1.25157946396229  -10.50475628281790    1.55510634889655
C           0.10628753699320  -10.35365924679068    1.32417050392339
C           0.69053892280108   -9.04468997708417    1.47596969859258
C           2.06469515393260   -8.75868457919012    1.20736000575457
N           2.50740402388884   -7.50740890796752    1.38800732356565
C           1.69288172428004   -6.57784767008163    1.79722543505879
C           0.34431259723352   -6.85929607466914    2.05373937368432
N          -0.12315015789325   -8.06306853705322    1.89161329133450
F          -0.50716640722987   -5.92091068104276    2.47053253387515
F           2.20647950302216   -5.35421227499852    1.95787981987041
C           2.98044481802016   -9.76776549275424    0.75291665929099
C           2.40283867670651  -11.07924625877799    0.64994131670415
C           1.02371733824112  -11.36678642254464    0.92526525130717
N           0.74352132761192  -12.64941382738161    0.75461635815189
S           2.07705976196393  -13.43754497874242    0.29020587815206
N           3.06953540104297  -12.16678430533909    0.28677417846112
C           4.31907975408822   -9.67089627500325    0.39134439411942
C           5.25935430333878   -8.64366267794395    0.30933019456564
C           5.25229547498168   -7.27416623818631    0.59608664688872
C           6.44515424229373   -6.64106605925839    0.33857882758695
C           7.44346599040402   -7.48549743312300   -0.16292740994366
S           6.84497252586721   -9.10874532219829   -0.29659777701094
C           8.74978039033926   -7.14346456814112   -0.53747499064515
C           9.34030550882463   -5.87281523394498   -0.48761147288913
C          10.62899380861220   -5.86625383539019   -0.94779897273424
C          11.10514475098135   -7.12571687536119   -1.37648659875984
S           9.85942933837638   -8.33262066678159   -1.16243560000449
C          12.37442333532020   -7.29104763044885   -1.90157942869948
C          13.05340841565390   -8.41151344797527   -2.39440051150715
C          14.36944972490534   -8.22529996150795   -2.92738030571830
C          15.13698510340383   -9.31684201440194   -3.45536316856396
N          16.37759883778462   -9.08714393468922   -3.95847617152208
C          16.83347661882204   -7.87809735593316   -3.94570629096912
C          16.07510672734348   -6.80245248850661   -3.42155413276567
N          14.88609969715815   -6.98431166340456   -2.93284149340603
F          16.55870344101309   -5.55797354492264   -3.41225985408783
F          18.05071283484261   -7.66602615431459   -4.44486578787054
C          14.64426135971583  -10.61831415464056   -3.46957319807899
C          13.37010384601643  -10.83263697792584   -2.95495656541610
C          12.57247932059407   -9.74607397243745   -2.42305339296559
N          11.39567327073359  -10.17245093553689   -1.98663454590293
S          11.28589288225134  -11.76927860874856   -2.21375182003951
N          12.72622132213896  -12.00242717395941   -2.87742735240281
H          -5.59686774067637  -23.71620434224561   -0.55588001908925
H          -2.32473097685092  -19.00851704597861    0.43556508322438
H          -5.97509834393590  -17.56013086175088    0.85952735738892
H          -5.88492917811208  -15.03631533971750    1.33353991968043
H          -5.23423256456818  -12.77504334070886    1.74170327461199
H          -3.93870070821348  -10.55930814725618    1.96897583091841
H          -1.74698941789380   -9.58154748449239    1.83293663876901
H           4.71590324120742  -10.63431200052869    0.08531891262477
H           4.38090439714140   -6.78531116810508    0.98395403377393
H           6.60800689741844   -5.59122046159913    0.50230596653060
H           8.82404540859907   -5.00182772797946   -0.12654655467602
H          11.25000491008704   -4.98928786872715   -0.99423352839879
H          12.96098592630518   -6.38125439162351   -1.95911300414175
H          15.23686365130887  -11.42289473774324   -3.86785785618420
