83
 SCF done       -203.624425541231          0.000806133209
C          -4.69249551623392   -8.37379334444271    7.83608451474350
C          -3.42252829552309   -8.39635137854711    7.27794094846401
C          -3.22913987129533   -8.45548864672243    5.85395799650404
N          -1.97759487015981   -8.47462804709683    5.35154895080572
C          -0.97048439046981   -8.43958459084975    6.16098982739212
C          -1.16350859223760   -8.38138836463239    7.57262894044551
N          -2.33925621683220   -8.36097803342476    8.09839723434083
F          -0.11211756458006   -8.34636154477046    8.38577821245732
F           0.25160126811003   -8.45925348270404    5.63810922282938
C          -4.31044101476052   -8.49406929116427    4.94595943252656
C          -5.59930720562383   -8.47163384416735    5.52734420562958
C          -5.77614808621162   -8.41134915871965    6.96493632200728
N          -7.07263749889507   -8.39770312472760    7.30137596164187
S          -7.95767915986618   -8.45388137880788    5.97212067733150
N          -6.77337989059633   -8.49868850172942    4.89350333442588
C          -4.10006555489864   -8.54703615920919    3.54016824735110
C          -5.08257745426781   -8.58572829845936    2.55736933240376
C          -4.54089841306964   -8.62281584773095    1.28135438118214
C          -3.12626493719877   -8.61333496744381    1.28680608165022
S          -2.47862809946203   -8.56011877319291    2.86726854041078
C          -2.67346713782712   -8.64094980181317   -0.05068019266676
C          -3.80053319304848   -8.66848027712848   -0.90498476820695
C          -5.00710013762208   -8.65867247530326   -0.09353110697004
C          -6.29893101263782   -8.67318099512043   -0.53213023103064
C          -6.62700949064350   -8.70213464509843   -1.90423303065616
N          -6.90482828555156   -8.72554007188498   -3.01665878724169
C          -7.39568869274722   -8.65812467541703    0.35549065585252
N          -8.29465501565264   -8.64387929166598    1.06701880764792
C          -3.45848825466322   -8.68443144595927   -2.24700226853520
C          -2.07851872076904   -8.66599600448872   -2.43471815897094
S          -1.19888880625343   -8.63632144391678   -0.91525321540890
C          -1.39522645237906   -8.64792443021669   -3.67737621122736
C           0.01561627171318   -8.60630112822937   -3.74926329194971
C           0.72309258994439   -8.54400552168166   -4.99374889964983
N           2.06968540339830   -8.50316695973156   -4.98467922002094
C           2.70578241166285   -8.52084536044691   -3.85752376461439
C           2.00511793381869   -8.57893819918638   -2.62499805791566
N           0.71170038859567   -8.61892395586838   -2.59584282565438
F           2.65515582280220   -8.59432552419871   -1.46667803196864
F           4.03319802267853   -8.48413504255253   -3.89059582219240
C           0.06341398600731   -8.51746992781763   -6.24330411737028
C          -1.35039616674035   -8.58810267454067   -6.18188785802594
C          -2.06403984946352   -8.65230965898588   -4.92645126210663
N          -3.38230999059276   -8.70823324727993   -5.11883066029095
S          -3.69859191557534   -8.68488151140542   -6.68938019312182
N          -2.18866971449175   -8.60051271235747   -7.21876631109680
C           0.77961644587800   -8.41207987027865   -7.46282290812225
C           0.23391319525562   -8.36327503585487   -8.74322065003417
C           1.20842330632512   -8.23367091933034   -9.71872204511528
C           2.51761017114089   -8.18324220743101   -9.18533994818482
S           2.53202342278887   -8.30048494127158   -7.47993191849012
C           3.43096650034703   -8.04333695634291  -10.25370314443029
C           2.70089150898265   -8.00553493240566  -11.46487947552441
C           1.28473931821904   -8.12436186029146  -11.16655325750695
C           0.24725892959503   -8.12864391590329  -12.05260909739300
C           0.44613437360581   -8.01598246956286  -13.44498975529633
N           0.59607344665628   -7.92566287638474  -14.57813702910633
C          -1.09619308616358   -8.24400639691964  -11.63697053023012
N          -2.19128633562116   -8.33643262152912  -11.30955278169154
C           3.51495082784087   -7.86257287621713  -12.57825478131896
C           4.86006799392897   -7.78925975688290  -12.23503485971499
S           5.11587515227667   -7.90046850353609  -10.50170441521042
C           5.95458432003198   -7.64021407966076  -13.13119207879310
C           7.28646020044440   -7.56903552885988  -12.66633742606322
C           8.40485969494589   -7.41934783430426  -13.55807037907595
N           9.66313272554001   -7.35694477975338  -13.04722518648686
C           9.81737441144439   -7.43315862268917  -11.77077534363663
C           8.70917584565747   -7.58061497522906  -10.88556082064524
N           7.49955978703312   -7.64441469923141  -11.33660770958550
F           8.88991972765801   -7.65603797673924   -9.57068819104392
F          11.05296099255068   -7.37042200919075  -11.28353981688234
C           8.22990994609782   -7.33660701246032  -14.93185428245018
C           6.92813129231477   -7.40223863675832  -15.41737411669489
C           5.78956412983450   -7.55270470872134  -14.53296305686278
N           4.64425536687393   -7.59169230572214  -15.21697525952366
S           4.95822005281105   -7.45562894711131  -16.78240513215670
N           6.54974122263597   -7.33962717861278  -16.70083580598473
H          -4.82450681586513   -8.32855711852440    8.90272586634889
H          -6.12957483031945   -8.58281052160616    2.79910654850937
H          -4.14387775588697   -8.70389262765026   -3.07405056511399
H          -0.82560804045462   -8.41982088555748   -8.91165354717766
H           3.18452193406031   -7.80968899775937  -13.59935468925591
H           9.07446195506404   -7.22561069380813  -15.58871591942567
