76
 SCF done       -130.091848387705          0.000461768231
C          -0.85703936254813    1.86074469600909    3.44959899422536
N          -0.39768477465611    1.62743672674246    2.10971696776660
C           0.88484967015755    1.80010085816945    1.65222607246116
C           2.01363205379111    2.22217765011052    2.33100832807418
C           3.21380171275759    2.30562767978831    1.62965966846497
C           4.40592298435445    2.74294726950680    2.34624560338687
C           5.54618046914783    3.29371103868207    1.72714023386798
N           6.62682118548662    3.55427810594902    2.42867092613958
C           6.53938512777184    3.33097362012039    3.73693600282145
N           5.44097542671103    2.97404841055284    4.37097300933811
N           4.38950852931577    2.66171333267078    3.67794052705344
C           3.27355246478868    1.96234578230086    0.26918974231861
C           2.15055302133779    1.54268468904579   -0.40851794532168
C           0.94204313652754    1.46179550981123    0.27442166986486
C          -0.38305788848872    1.07482746122795   -0.10097167862155
C          -0.96231287359557    0.63024651069445   -1.28469699431863
C          -2.30369630826263    0.32305654127850   -1.29901684346029
C          -3.09558764956816    0.45841621375171   -0.14542481978610
C          -4.50541379463088    0.11063090262232   -0.17206419600472
S          -5.21521395376601   -0.57222431104453    1.28428727761382
C          -6.74790235487946   -0.75846819017327    0.49987009165488
C          -7.90968557084453   -1.27289483102272    1.06068033260227
C          -9.04745104894114   -1.32820615372828    0.28893023940907
C          -9.02745415113103   -0.85166172129023   -1.03311546231370
C         -10.20563572021940   -0.90744131173819   -1.81153424099350
N         -11.15424479516777   -0.95994736539081   -2.45374709452198
C          -7.86855512551203   -0.33120485100854   -1.59196499085844
C          -6.70228650082036   -0.29784723331048   -0.83194223830481
C          -5.40367394534835    0.19144916385744   -1.19842733228512
C          -5.14434762206585    0.76906730160884   -2.52193039489218
C          -4.61355901579830    2.06306010140183   -2.62870156797630
C          -4.42749512571002    2.65952808954486   -3.85569883582658
C          -4.77869122725244    1.95817694983634   -5.00421044424268
C          -4.76175441610068    2.26868143506855   -6.40132034748726
C          -4.38532472163708    3.39240100560876   -7.13102695034454
C          -4.52913817716060    3.37561719577534   -8.49921341364697
C          -5.04727540706093    2.24770037478687   -9.15663545202271
C          -5.21014504439245    2.26665009862781  -10.60403497336789
N          -5.71638080659367    1.17199859068934  -11.19914926657525
C          -5.86401583594556    1.23683189900658  -12.50297529927949
C          -5.50784742608612    2.39407202685693  -13.19836314846330
N          -5.00040714485718    3.42803758369161  -12.54897388695522
N          -4.84986108231942    3.36719148552071  -11.26377595396038
C          -5.42295051225536    1.11102613223408   -8.44548817919914
C          -5.27479543891590    1.12681468597482   -7.07064664233376
N          -5.57071369195178    0.15310046251746   -6.14639024682185
C          -6.13525194536018   -1.13647986507825   -6.42641082516122
C          -5.29922612822651    0.64454463613506   -4.89556556354214
C          -5.48404712505779    0.04642000207478   -3.65826278427979
C          -2.52780244728680    0.89297611357038    1.04861651087012
C          -1.17753777450899    1.19719640285287    1.06683990819641
H          -0.01827191826988    1.79080236703531    4.13936734719454
H          -1.59628819860768    1.10707245274332    3.72199344758666
H          -1.31187999771363    2.85154175448062    3.54512716835271
H           2.00103816491199    2.49138571733259    3.37468449062972
H           5.57299118247001    3.55642108656588    0.67799911285315
H           7.42609178313758    3.49437539326168    4.33224463734826
H           4.21946855954656    2.00475789004773   -0.24859413255669
H           2.20546856767322    1.27650525167049   -1.45302237604061
H          -0.36592473732022    0.51925523982873   -2.17724110699875
H          -2.75929481370581   -0.04425308012417   -2.20472607216816
H          -7.91346971692436   -1.62032828909544    2.08195800651228
H          -9.96524729450261   -1.72813073790913    0.69224875695908
H          -7.87435528548613    0.05123221945724   -2.60170347615354
H          -4.36219415422835    2.59498672831414   -1.72346242274025
H          -4.02706755769097    3.65909814007081   -3.92679781666440
H          -3.99307719032778    4.26219932543791   -6.62660409251232
H          -4.25437828872770    4.22868400796249   -9.09805226618418
H          -6.26725632574818    0.36012303631797  -12.99477768525121
H          -5.61834835491375    2.50072501102629  -14.26639201302801
H          -5.82404716428599    0.26477105225011   -8.97960949118476
H          -5.91310003672795   -1.41454401942596   -7.45468534224510
H          -7.22109278015892   -1.13377194894172   -6.28815316316869
H          -5.69887509510558   -1.88326700132311   -5.76204594638201
H          -5.87033528233089   -0.95812538080931   -3.56964428744709
H          -3.14089591216870    0.99597488133651    1.93145463034680
