69
 SCF done       -152.408090039720          0.000193625649
C           0.65661982449793   -0.00068515190235    4.44559335237067
N          -0.09935983832966   -0.83066514477906    5.16341318399724
C          -0.49322933773048   -1.92157765914029    4.55373613501476
C          -0.11661734818603   -2.17422827318614    3.21620566606729
N           0.64214635091617   -1.27150069189108    2.58098543434045
N           1.01815057380365   -0.20026664094549    3.19480882971154
C          -0.49994446888054   -3.34976853730052    2.49381275027080
C          -0.16347061879628   -3.65395192079220    1.18958926816957
C          -0.68977155573155   -4.88209842567995    0.79256098092763
C          -1.43407625525132   -5.51157150414802    1.81155244166044
S          -1.48487752897664   -4.59493519466524    3.24659271107124
C          -1.91906396039909   -6.75099301836704    1.33168650195820
C          -1.47817783008697   -6.90762668982201    0.00164257550954
C          -0.69762657882136   -5.73970354705362   -0.38057195803196
C          -0.10270310060144   -5.50732034719217   -1.58532910329656
C          -0.18462095848153   -6.42748713910177   -2.65257445342262
N          -0.24537628231556   -7.16890529156834   -3.52502474295877
C           0.63454668052988   -4.33341397037547   -1.85129810520077
N           1.23578216106094   -3.38442243791393   -2.07899385352379
C          -1.88976642581915   -8.10649555669117   -0.56275639815096
C          -2.64267301838759   -8.86677940807549    0.32530553907431
S          -2.84853533871605   -8.07902365804835    1.88057824938333
C          -3.20179982703848  -10.14836021013572    0.08643649142183
C          -3.95519293186547  -10.80900708100407    1.08199560196126
C          -4.51409568981906  -12.12073919505921    0.88294254355563
N          -5.21751239264675  -12.69452705491553    1.86460726251928
C          -5.39591457916791  -12.06169503750091    3.00058148611683
C          -4.83928824576664  -10.75814130670713    3.19908681831942
N          -4.14480087040512  -10.18030342665954    2.24711425310165
C          -5.03190395248543  -10.07341029624754    4.42403621728504
N          -5.20268426282146   -9.54025169156709    5.42320484864736
C          -6.14719819806114  -12.68390362946850    4.02760500575894
N          -6.75055222707146  -13.16203057202347    4.87565330214427
C          -4.34412152744911  -12.83995597533064   -0.32157649242387
C          -3.60362040404072  -12.17531749071297   -1.32807561644355
C          -3.04512267237991  -10.85608479399731   -1.12880252927545
N          -2.38878661485856  -10.43666749403895   -2.21076549655878
S          -2.46041403164766  -11.56047866360912   -3.35175087628515
N          -3.32325207909278  -12.64335541093064   -2.54452903626050
C          -4.88331280372386  -14.14231375128259   -0.47670715892339
C          -4.77605062204851  -14.96063034538296   -1.59628270618973
C          -5.40870536241169  -16.18062431591028   -1.40800807773911
C          -6.00617663082929  -16.29660869868564   -0.13570145951034
S          -5.78563654735310  -14.89939261333587    0.82599855578770
C          -6.61545099704335  -17.57154146268607   -0.04679701465422
C          -6.40367951367659  -18.26231942322152   -1.26064741476708
C          -5.63864536447154  -17.40960237296588   -2.15365955236817
C          -5.21741924918060  -17.69247467385420   -3.41958010450074
C          -5.49431240296467  -18.92332714475054   -4.05229104631250
N          -5.71156995784229  -19.91864404154294   -4.57775539294420
C          -4.47157745313719  -16.77140736715892   -4.18605290150999
N          -3.86457543445003  -16.03056455751002   -4.81647075624203
C          -6.96990438817328  -19.53547802060553   -1.25900905636900
C          -7.60079845879696  -19.80261031675601   -0.06012200495717
S          -7.50475958051594  -18.48367054217412    1.08485233352078
C          -8.29034964747074  -20.99679431112523    0.32036204880537
N          -8.83106937978395  -21.03500923363848    1.55029788971210
C          -9.45684460681652  -22.14203288558858    1.87382733576846
C          -9.53437702043988  -23.19854687262447    0.96022863248573
N          -8.97531222423780  -23.08424768979940   -0.23216904898161
N          -8.35759083787896  -22.00091210368623   -0.55905627875275
H           0.99803665403448    0.90537670908044    4.92348745922592
H          -1.11231404576945   -2.61126209022209    5.11401550188772
H           0.43670427320040   -2.99404897032480    0.59004116472191
H          -1.67264297444231   -8.44600912068219   -1.55870432209804
H          -4.25431641635510  -14.64677280568501   -2.48152279446019
H          -6.94219666494627  -20.24796830385242   -2.06310287350161
H          -9.89639246446883  -22.18701853308617    2.86132924183922
H         -10.03604451668745  -24.12913460204521    1.17270101268242
