54
 SCF done       -109.292985015385          0.000376274850
C           0.72131265008759   -2.67451134926372   -3.61076078017079
C          -0.23531720312277   -3.00371046330430   -2.51451109813813
C          -1.62318653054662   -3.01340563018187   -2.71021671580782
C          -2.34992773119002   -3.26980407205094   -1.57026394117758
C          -3.75604380344851   -3.36310381358311   -1.42212233650151
N          -4.35838258012350   -3.59673427692912   -0.29716980051275
C          -5.68270972953287   -3.63633054819598   -0.46812803455608
S          -7.01392888096197   -3.89721002289087    0.58996272605783
C          -8.05931709771962   -3.70196380797520   -0.80355560776587
N          -7.48670591078962   -3.46933931769462   -1.92962747089946
C          -6.15417965111037   -3.42763461250113   -1.76986090364260
S          -4.82968247869758   -3.16591006820047   -2.83446366145147
S          -1.31193322946272   -3.49051046993858   -0.20288194725262
C           0.10424435403925   -3.25946119046870   -1.19590909858134
C           1.39057221988460   -3.34871718504381   -0.55524255947787
C           1.59303809492650   -2.89156252132428    0.70208764119253
C           2.84023329104008   -3.00487238866034    1.37798371001636
C           3.84395963228759   -3.78446839378786    0.90565081805464
C           5.07411882777626   -4.00551114624274    1.59460551233112
C           5.50160408876473   -3.47069206008663    2.79548353646621
C           6.75903524989215   -3.91269592612512    3.21340426895448
C           7.42525650861669   -3.48463192213039    4.47192204877870
C           7.31634014442164   -4.81174982906543    2.31188638888678
C           8.56456166514185   -5.47224075064350    2.41610045190051
N           9.39166352108284   -5.32335995488051    3.40884664631553
C          10.47924585169196   -6.07924512410085    3.23379722016088
S          11.90951030223919   -6.33595432717583    4.15650033251798
C          12.42595406669204   -7.44709829265596    2.90234475262942
N          11.62816814114131   -7.60987591834108    1.90936696941638
C          10.52897676981359   -6.85543359223555    2.06966601221620
S           9.10226721034633   -6.60514139384321    1.14403959195726
S           6.27252780408251   -5.09121478892832    0.95614115904057
C           3.59425535439103   -4.60280633461257   -0.34451949191519
N           3.23427535962769   -5.92263702513360    0.13036013289272
C           2.46181035593436   -6.62255271940298   -0.57084362957928
F           2.09397750103078   -7.82614514003816   -0.14897108839799
C           1.95003193178526   -6.15155115882395   -1.87200545326543
F           1.43745256851605   -7.04783544115533   -2.70723465455733
N           2.03508546923689   -4.95157444023975   -2.23833077933346
C           2.55453010555871   -3.98178630034804   -1.29922118263754
H           0.17739772989823   -2.29043944126115   -4.46926473344026
H           1.27221654490567   -3.56330988731876   -3.90961995598073
H           1.43663341778014   -1.92304115150932   -3.28265297120660
H          -2.09065860953961   -2.83367744751365   -3.66261116357449
H          -9.12190139356486   -3.77895787714879   -0.69248552644208
H           0.78131078971101   -2.40079580749773    1.21808229398452
H           2.95736103218697   -2.46616272520427    2.30428345197746
H           4.91521240612156   -2.77369949891049    3.36610226186634
H           6.81105900961883   -2.76097888048676    5.00047955870898
H           8.39791456563479   -3.04856444762671    4.25336404057260
H           7.60342154065843   -4.34654745796657    5.11216431087481
H          13.36687798461920   -7.95178324079797    2.98700577349321
H           4.54179070195641   -4.72510016006164   -0.88860805188873
H           3.04056006665947   -3.20407825849929   -1.90256897308724
