48
 SCF done       -104.513804969625          0.000530248177
C           1.10280923743755    0.24986977378599    0.45590197800104
N           2.46276747312027    0.15737467880065   -0.01436853459620
C           3.23215365046957    1.28493322635448   -0.32754539758905
O           2.82503607193778    2.41179182702422   -0.27708404059788
C           4.53455632786465    0.72901720108189   -0.74291647083333
C           5.74093375867248    1.19881811125706   -1.19579043704220
C           6.19280507797026    2.56471603668269   -1.31857187406681
C           7.20197870540242    2.93056206143836   -2.22856852748496
C           7.56401287349291    4.25399478687879   -2.27413572733719
C           6.88158935069304    5.12909919273817   -1.41033025640035
C           7.15872592976594    6.53920357316272   -1.38531692696628
N           8.02436583827240    7.13065507341376   -2.15305302339578
C           8.05313708976477    8.43892092288746   -1.89200498112585
S           8.94934927906334    9.76506108217438   -2.52454556670471
C           8.08363451444281   10.78537462965727   -1.39352216706202
N           7.22532490022625   10.21132265277816   -0.63105902389461
C           7.18375001522193    8.89203441031510   -0.88620556473390
S           6.28715710982772    7.57316280163687   -0.24978611695346
N           5.95119820574160    4.69476738399009   -0.55933187424206
N           5.62292990823632    3.45818730422245   -0.50660011917828
S           6.78662843050015   -0.13832976468263   -1.60811444957515
C           5.58617384185884   -1.31447195529592   -1.14893100816384
C           5.93804156613225   -2.70249130443408   -1.29094225183638
C           5.08909245346102   -3.76614120043514   -0.93235233209145
C           5.57151374213761   -5.03718343239397   -1.12913879982483
C           6.86456487582573   -5.16267685233597   -1.66905806078110
C           7.45897131433781   -6.44742561715478   -1.91764044450367
N           6.87753144755905   -7.58279724805104   -1.67375003143224
C           7.67869361584244   -8.59448519855427   -2.01321848615458
S           7.53131725183999  -10.30819282595911   -1.95430838914805
C           9.14334192153159  -10.38954946698088   -2.63522800906470
N           9.72884806960447   -9.27374272701429   -2.88114797403286
C           8.93194591269680   -8.24571732438918   -2.54231270574044
S           9.08507849685625   -6.53672009605846   -2.60454157842491
N           7.60593999578949   -4.09869629866578   -1.98163010884148
N           7.15631766850449   -2.91179278561292   -1.79786189726320
C           4.44697838494652   -0.68601478462125   -0.71434028993786
C           3.10380696228492   -1.04824437418403   -0.22015709015968
O           2.60918425744559   -2.13241366241229   -0.02103845217910
H           0.85519783590467    1.30631944342498    0.54170124494852
H           1.01016705155008   -0.23807323887110    1.42666601852314
H           0.42685189555251   -0.23657284556054   -0.24864269546917
H           7.66039272837483    2.18700657180266   -2.86349988479910
H           8.32775420991188    4.63483686225151   -2.93261996059322
H           8.28239137759431   11.83780267106114   -1.36150172835877
H           4.10828100519811   -3.57708671537993   -0.52525985756948
H           5.00407633412327   -5.92145855688452   -0.88883701055259
H           9.59570203501430  -11.34142400287862   -2.82881911476645
