71
 SCF done       -160.394383832673          0.000701256265
C          -3.18360055863835   -1.55724371007724   -0.24282312640196
N          -2.67221739889765   -2.38083381027122    0.60098238334142
C          -1.35993870255928   -2.52803826106452    0.36333275909563
C          -0.83969347846025   -1.78718439296454   -0.70803821617697
S          -2.09929560279396   -0.86654206578227   -1.43280993722208
N           0.46479589603743   -1.92482431604811   -0.95371116257267
C           1.00508622236761   -2.75364897241256   -0.11123551663225
S          -0.11016781442404   -3.45058953693088    1.09456936314038
C           2.38099190787434   -3.09522722099664   -0.12415099523645
C           3.33432146538875   -2.61462671744137   -1.00526125440549
C           4.59335409169318   -3.15117103289536   -0.74371638318269
C           4.58978704455914   -4.04238974309331    0.34799328747987
S           3.04127792975468   -4.21864617454566    1.04496081861610
C           5.90231923413946   -4.52980638996616    0.53921269555260
C           6.74485651124415   -3.95403477781639   -0.43399706535749
C           5.95265813747872   -3.04318215890958   -1.25032554874084
C           6.40370531689848   -2.21301626819035   -2.23174385544562
C           7.77284721687177   -2.08620431260373   -2.55792298976662
N           8.87988004811635   -1.92576327765548   -2.80608038476533
C           5.53627983182866   -1.36783703115185   -2.95824292059606
N           4.84217721830136   -0.67939723203781   -3.55670354599825
C           8.05785168361982   -4.40012068788167   -0.35337695067780
C           8.23025793854804   -5.29700080025543    0.69535325642354
S           6.73812137965026   -5.59345806139459    1.57987169814073
C           9.43262756212535   -5.92527125542356    1.06809604381971
C          10.64451999444960   -5.91436770089438    0.36228101385304
C          11.69700320784223   -6.62504663579877    1.03826561570045
N          12.93863488533351   -6.64107440416867    0.54831831126793
C          13.13731885189096   -6.03851415141286   -0.60257562124593
C          14.53629070887405   -5.97310974006035   -1.10070166697276
O          15.48144688521114   -6.34091979558579   -0.43863454215760
C          14.68802708508143   -5.38857606919319   -2.44553458447053
C          13.67034152363351   -4.90232374777185   -3.16332155292936
C          12.26894310512517   -4.90799472783098   -2.70568988271962
O          11.35254791518257   -4.53685303802241   -3.40512353622915
C          12.06267845315911   -5.44119484214747   -1.33353580126604
N          10.84872662833874   -5.36314516821691   -0.83626505808300
C          11.27986244956809   -7.20957891749121    2.24296503073264
S           9.60777013683951   -6.84325627697502    2.53092285886196
C          12.06251766493866   -7.97298674929514    3.12844688271605
C          13.34689954200814   -8.45158911095576    2.89366457515104
C          13.83411976730652   -9.16369880520261    3.98225715496643
C          12.93040228401584   -9.21143915130434    5.06372606868023
S          11.46118224254790   -8.41271768203035    4.72287940995457
C          13.53823690324106   -9.90899023334710    6.13181659359876
C          14.82818396377070  -10.31208553665046    5.73221126059815
C          15.04273278310064   -9.88598672092088    4.35797689041002
C          16.11663650349821  -10.16222142584250    3.56666597018009
C          17.23757435548122  -10.87622426814820    4.04446339042287
N          18.15420767953489  -11.45212230454788    4.42148893794699
C          16.16829658954195   -9.81437976394119    2.19797306813991
N          16.21427388624359   -9.58994157464757    1.07549105218723
C          15.50939942309536  -11.00533301049367    6.73057796463304
C          14.74799354951916  -11.12447849946406    7.88048313780691
S          13.16987379339489  -10.38158103367217    7.73048795199503
C          15.14307954850491  -11.76198434173580    9.08356128694327
N          16.30171870016679  -12.32701742335171    9.24753773444013
C          16.40414317285003  -12.84410285632973   10.47355996453684
C          15.29432665024021  -12.68872247963226   11.31696620078713
S          14.05299242560528  -11.83443438620728   10.49416519086852
N          15.40939590894435  -13.21223474534434   12.54699399303607
C          16.56180021159815  -13.76398403969774   12.68539941703241
S          17.64136456453606  -13.70071310282096   11.30724911737576
H          -4.22081797072317   -1.28930420435395   -0.24006528633867
H           3.08932215094447   -1.91550774734966   -1.78307379462308
H           8.86914782640811   -4.12296783972606   -1.00240732095929
H          15.70204345524286   -5.36910244720948   -2.82163385136260
H          13.82661251169356   -4.47819079646910   -4.14604762185488
H          13.86595384950940   -8.25669256368913    1.97236306155319
H          16.50243369605668  -11.40888985039557    6.66122016913687
H          16.87180745593291  -14.24655188184243   13.59020839324884
