83
 SCF done       -182.802321321270          0.000535431260
C         -16.83470158891875   -3.59133104801862    0.72202082787891
C         -16.27125028814726   -3.41831506022088    1.94333376698675
C         -16.69345638861781   -2.99254381900961    3.29262521949683
O         -17.77625247501182   -2.67140407578221    3.70756146046277
N         -15.52954051490588   -3.03697499978486    4.05084583250801
C         -15.49083031797978   -2.68477881579231    5.44888252327739
C         -14.40296583357811   -3.45420252286855    3.34901405431989
O         -13.30202058322770   -3.56648337410196    3.82984364739537
C         -14.87837173187718   -3.70191559842205    1.98166555506782
C         -14.36571333309707   -4.09687259217078    0.76745586909773
S         -15.65646374446668   -4.11056852518620   -0.42490542343340
C         -13.03790456060158   -4.45239474477293    0.41242658752612
C         -11.94653938636541   -4.57827684259806    1.25622071278303
C         -10.79521067781429   -4.93278652300955    0.55674437893645
C         -11.01311899075768   -5.06705539342252   -0.83093999964191
S         -12.63457150457825   -4.77589762154102   -1.26762269295040
C          -9.79110885542821   -5.39137826865524   -1.46170402963116
C          -8.79214602329927   -5.47250324003963   -0.46836499919754
C          -9.39114884630551   -5.19491242540270    0.82983729540400
C          -8.75441242747317   -5.18850147190650    2.03469505702247
C          -9.40585971932022   -4.93344731148669    3.26184582294377
N          -9.89673409460159   -4.74641465861668    4.28035303091605
C          -7.37110907938409   -5.45074437563480    2.14667883601329
N          -6.24775334555464   -5.65644628613199    2.24888987348725
C          -7.54183611684255   -5.76978521448845   -0.98910441802664
C          -7.57326829900190   -5.90465049397303   -2.37350830384030
S          -9.18358700445529   -5.67208538786719   -3.03579318767960
C          -6.47066528572588   -6.15347482465536   -3.22828088627002
C          -6.62928226621251   -6.18004044277659   -4.63241264293819
C          -5.51431309921250   -6.32664470902646   -5.53205891102058
N          -5.72735104274939   -6.32345102175774   -6.85202394298261
C          -6.94538902369095   -6.19419173279976   -7.32040237570687
C          -8.05444663805459   -6.04825607187185   -6.42557705547928
N          -7.86322984332582   -6.04338009093245   -5.12812066085390
C          -9.37122328269849   -5.91074343959408   -6.92949381299912
N         -10.42582613031364   -5.80304101390067   -7.36296618734730
C          -7.15551519772251   -6.20806164394273   -8.72144010725760
N          -7.36079295003159   -6.21831595298203   -9.84808288111358
C          -4.18550069613860   -6.46993554054674   -5.07214427853036
C          -4.03088428365456   -6.51411920675988   -3.66575819805778
C          -5.14898433419539   -6.35303552270160   -2.76283941801519
N          -4.75861901884581   -6.41160215731477   -1.48944675515708
S          -3.17470763141210   -6.64428110048518   -1.42322633573579
N          -2.88780602463884   -6.67936995521906   -2.99950079242221
C          -3.09863800609289   -6.52381451071463   -5.98049218281931
C          -1.75513741175756   -6.70013051023267   -5.66634645809747
C          -0.94796675558136   -6.63342738598836   -6.79216925966292
C          -1.67797393164990   -6.39578167399594   -7.97684726186644
S          -3.36115440079157   -6.29188311784074   -7.70302467892374
C          -0.76401292337511   -6.30100120911224   -9.05399705206853
C           0.54190429049640   -6.48656090567830   -8.55180885758105
C           0.46744558981025   -6.70975354137854   -7.11802055824889
C           1.50232488467007   -6.93743035415516   -6.25901694857067
C           1.30378735808533   -7.13644640053144   -4.87621641217810
N           1.15294946228678   -7.29924082810089   -3.75131071041274
C           2.84151384125420   -6.98900944120881   -6.69995427864611
N           3.92978898834311   -7.02989454522496   -7.05904394664415
C           1.51381171676178   -6.37954604527955   -9.54066852956198
C           0.95657694206755   -6.10548996632838  -10.77950787235800
S          -0.79646205601001   -5.98682881032554  -10.73034522420544
C           1.65475808088951   -5.90786207022927  -11.99700467626747
C           1.16288242384511   -5.56757540836437  -13.23315956088724
C          -0.14015333430483   -5.27867685233373  -13.82887321405466
O          -1.24049830686246   -5.28471060366205  -13.32683453423889
N           0.13212109941546   -4.98013300010986  -15.15813824693568
C          -0.89306260813680   -4.62841402951167  -16.10957243477596
C           1.48250210095725   -5.05329068554624  -15.49430116461134
O           1.92879472291129   -4.84229073125890  -16.59093136210645
C           2.15889217597279   -5.43260298911853  -14.23682032861344
C           3.41575745769233   -5.66985220014697  -13.78526750979182
S           3.40206014874805   -6.06581124647673  -12.10335528120066
H         -17.85240896613642   -3.44951802288089    0.41816391792658
H         -16.34884726809956   -3.12538924334634    5.95545745319874
H         -15.52679597236512   -1.60043509375129    5.56965081498561
H         -14.56137269431933   -3.06747774360172    5.86695344818542
H         -12.01067824647544   -4.40642566284781    2.31692490221345
H          -6.63186950900618   -5.88239605738664   -0.42917444910755
H          -1.42297590061002   -6.85778567244560   -4.65677283617621
H           2.57384234847318   -6.48276702022725   -9.39079527197533
H          -1.85863048526480   -4.85567394083228  -15.66127200664985
H          -0.75325238962822   -5.20321731960146  -17.02469161660625
H          -0.84038332510724   -3.56494734631021  -16.34942147526972
H           4.34562333956269   -5.63995269563045  -14.31694639007768
