95
 SCF done       -216.634317260617          0.000720646048
C           4.29478592564340   -3.38804882498268   -0.82777478806677
C           4.76856163786286   -4.54868965713730   -0.27579519197073
C           5.88022899502366   -4.61134302055512    0.59264951354948
N           6.77909975707396   -4.72206727729021    1.29618936253676
C           4.26652936816618   -5.82903335758019   -0.58236131708562
N           3.90792578513845   -6.89237958285794   -0.82433279024527
C           4.95522314340668   -2.08754809942517   -0.72757031563515
C           4.51345965621103   -1.26844831885431   -1.78328820330227
C           5.00566119139642    0.00853027422317   -1.96291532338803
C           5.94983114282592    0.48409960178987   -1.06108499613588
C           6.37966567466473   -0.31895900766203    0.00331415014593
C           5.88933478783799   -1.60933635674189    0.17512115844242
Cl          7.53007323924861    0.29062737429386    1.11975109390605
Cl          6.58690535185262    2.06569782064582   -1.25172563075531
C           3.49104865606356   -1.98734390651141   -2.57024407357068
O           2.92706490332492   -1.62511043745854   -3.57466805968629
C           3.25073644330465   -3.25653098196664   -1.82365820598138
C           2.13687706002297   -3.98328356320779   -2.11976207790666
C           1.49859567876930   -4.98140288130195   -1.35334376520122
C           1.61066361806035   -5.24267687583359    0.00665267148774
C           0.81567717815401   -6.30683529116910    0.40351840273481
C           0.07117808177771   -6.86609531934743   -0.65935124236660
S           0.34438381689723   -6.05821120321858   -2.13216903437498
C          -0.66705448744448   -7.96414989152716   -0.16329406117252
C          -0.38157606632464   -8.10722902773944    1.21350797543021
C           0.54807875140414   -7.06378798013803    1.61384119606144
C           1.06830836228494   -6.83778777612852    2.85381687910537
C           0.70523486056091   -7.61728326961170    3.97339112438335
N           0.38731417065325   -8.23656647952438    4.88370079676118
C           1.98265340607505   -5.78728096410619    3.08107504642645
N           2.72654790737523   -4.92888571315061    3.23775099025995
C          -1.03143461273123   -9.18746971123468    1.79024841274649
C          -1.82690791456626   -9.86760226214735    0.87367156818413
S          -1.77026909050021   -9.13869321909119   -0.72600652912852
C          -2.63047474808019  -11.01878913794430    1.08759657094061
C          -2.60637693942132  -11.80080239230924    2.27071575257040
C          -3.46372579040335  -12.94974809541292    2.42159916614285
N          -3.42608444456537  -13.66481473854295    3.55193386509345
C          -2.59681425720477  -13.33838809111898    4.51158462181075
C          -1.71723741666061  -12.21962702715537    4.34559583758086
N          -1.75142858988017  -11.49295594942298    3.25666177410681
C          -0.78539378624930  -11.90254786393880    5.36804190284369
N          -0.04473940981443  -11.69461004301913    6.21552435617764
C          -2.58209069522532  -14.10555574682667    5.70290877429545
N          -2.55593653525986  -14.70977388562501    6.67517525781957
C          -4.37388199611547  -13.37948410833003    1.42609998653813
C          -4.38027357139804  -12.61212353073017    0.24017923164906
C          -3.51692692828586  -11.46882183886891    0.08343093514485
N          -3.67213934214597  -10.89612089923446   -1.11121996796052
S          -4.77927570858617  -11.70291204648604   -1.94875688576580
N          -5.12166403881161  -12.81471096301124   -0.85019514751370
C          -5.20455984660646  -14.50880138680921    1.63183517498998
C          -6.18906982370654  -14.98114223728469    0.76821980475740
C          -6.81915387756941  -16.10847044897699    1.27004438666483
C          -6.30212480779444  -16.51147061749761    2.52226790993458
S          -5.05946368954496  -15.47852938239301    3.08709972702365
C          -7.00058119349541  -17.66584211279891    2.93672345279794
C          -7.97216790515462  -17.98956875375728    1.95809426713828
C          -7.87642118408949  -17.02616451164942    0.87410275964689
C          -8.60654547953764  -16.99104481580272   -0.27657839297579
C          -9.58439011284143  -17.96016852512230   -0.59135274168023
N         -10.36834120065555  -18.74479623562999   -0.87967882038192
C          -8.41618975436007  -15.98638998870242   -1.25006377580898
N          -8.26772136638492  -15.17147396050355   -2.04282414363117
C          -8.73477922155662  -19.09828439911141    2.29197589468219
C          -8.35515670597101  -19.64436268517364    3.51350893640032
S          -7.00710482229550  -18.75902242640267    4.23786536606965
C          -8.81171244742136  -20.78496529635068    4.20485580564930
C          -9.99538160537933  -21.45716202225297    4.07216072338471
C         -10.31794422548142  -22.69772258652539    4.75582400335365
C          -9.42698089975697  -23.56918655687214    5.32329839721601
C          -9.79703576511257  -24.77823814703486    5.95111063307209
N         -10.03524245066728  -25.76877729070701    6.47878385832185
C          -8.02435851346674  -23.40738038853522    5.32020645116372
N          -6.87772891258567  -23.35312420390563    5.33329072222502
C         -11.75705686568524  -22.90697473492096    4.63814462831853
C         -12.29727123804744  -21.88773235948949    3.83523974175028
C         -11.22936198640949  -20.95699756067684    3.41415774598049
O         -11.37100850560987  -19.96614420060628    2.73367957092834
C         -13.64412297200165  -21.82942418384949    3.54001110949666
C         -14.47552286741030  -22.81265214539562    4.06178868480586
C         -13.94694012949660  -23.82865016018683    4.86822523544703
C         -12.58839608381180  -23.88450049785378    5.16023825178272
Cl        -14.98710120890500  -25.03008829292454    5.51549963579775
Cl        -16.15603260779913  -22.77824885520788    3.71823231997551
H           4.66487077900038    0.61984354212425   -2.78347285926348
H           6.23448222487613   -2.19927694669223    1.00865249283956
H           1.64698239763592   -3.70395768497572   -3.04781638413903
H           2.21519000580617   -4.65004290575271    0.66857465276338
H          -0.94868038202201   -9.49092915803768    2.81710106590328
H          -6.40466458578151  -14.49871179751840   -0.16732603863154
H          -9.52522574588797  -19.50608229345573    1.69045015243063
H          -8.12505573450915  -21.14354607172640    4.96329533402211
H         -14.03660595828397  -21.04010699846383    2.91851948803777
H         -12.21784490690215  -24.67819616977580    5.78802400417975
