64
 SCF done       -133.043136608295          0.000844708010
C          -0.61241319508120    0.04194123727342    4.22601903033003
C          -0.77180314319637   -0.00178115697927    2.84623013117156
N          -0.60410705096682    1.05847499985644    2.08070090166741
C          -0.26977084762740    2.19508938563346    2.69299825142331
N          -0.09163828024592    2.34291510569214    4.00755541002958
C          -0.26226039660552    1.27501706302201    4.76103025298686
C          -0.08339764949484    3.36884945749617    1.88426911090215
C          -0.20665584996580    3.49406135057535    0.51828770908750
C           0.05078125323303    4.80240895330169    0.10118984785809
C           0.36859566455134    5.65695754773238    1.17304790392133
S           0.35209652000237    4.85997315268924    2.68004942649135
C           0.61028593745656    6.95710381906024    0.65256324331712
C           0.44539019501627    6.92273716256841   -0.74077408268940
C           0.08787036034790    5.56711500476176   -1.13432449044938
C          -0.15906205260860    5.11807400910747   -2.39813477561868
C          -0.09610644528902    5.96488654390521   -3.52542729218082
N          -0.04478967287897    6.64159552554245   -4.44959277741472
C          -0.49608440184697    3.77517936990929   -2.67113454986894
N          -0.77463533495233    2.68876095218209   -2.90937892007792
C           0.66407173572740    8.16107172601113   -1.34529315328810
C           0.99284168877044    9.13604098415365   -0.42365284499539
S           1.03192331814800    8.50904267053108    1.21935611429886
C           1.28323425566881   10.51157665545812   -0.68137440712723
C           1.58953140219596   11.41991225144067    0.33024941444869
N           1.86987265035961   12.70048742690654    0.16146414183269
C           1.88085310847104   13.24742329565883   -1.04478163417036
C           1.58577574029095   12.44748374493881   -2.18200448519296
C           1.28249508931664   11.05578412335703   -1.99321006088549
N           1.03211907191626   10.44701519024934   -3.15170680072363
S           1.16428574303270   11.51183010779835   -4.34592873532956
N           1.54513815789622   12.79919292121612   -3.46507044559071
C           2.19730776731779   14.63488391953308   -1.12994174155066
C           2.27272949860392   15.44681271295047   -2.24521700867104
C           2.61691042375851   16.75337079068798   -1.90070097500877
C           2.80110758967741   16.92017193048453   -0.51559713550206
S           2.55140794975631   15.47976938186891    0.36197962346342
C           3.14887471887555   18.27693604823250   -0.27349652992133
C           3.18398740269012   18.96066334598699   -1.49761323059027
C           2.84964120830647   18.02797101328477   -2.56232660214754
C           2.76815429146897   18.29378192235206   -3.89767206385881
C           3.01849255352760   19.58003209156000   -4.42016256939197
N           3.22287517500947   20.62545717003393   -4.84502611327396
C           2.42840271377706   17.30554076649893   -4.84601741640620
N           2.14958111678043   16.51330601567050   -5.62632347639419
C           3.52007148798260   20.31071265345694   -1.35461039259273
C           3.73834253050608   20.65591272124259   -0.03903413059623
S           3.52499590368886   19.28603093498630    1.04627772471622
C           4.09641980573050   21.94310788095927    0.49347361463227
C           4.32518234577678   23.07137441403987   -0.31005463329004
N           4.64771103003055   24.24341952312622    0.19642832090018
C           4.75493614974116   24.32957713854116    1.51078808886655
N           4.56907988147461   23.34254378644844    2.37033752637755
C           4.24447978583095   22.16888744395395    1.86941605798971
H          -0.75195633701657   -0.82872011158690    4.84421826416025
H          -1.04302852417755   -0.91432629578689    2.33070422834458
H          -0.11259637931279    1.41850979013171    5.82369873556363
H          -0.46986261183961    2.66519716665675   -0.11256358211848
H           0.59496300880659    8.37050149042263   -2.39704458739596
H           1.61021210042239   11.08664575819711    1.36008770248301
H           2.08335879198485   15.07974124564422   -3.23744169878333
H           3.59883079520603   21.00449193677921   -2.17115107307699
H           4.24831401320095   23.02865444075150   -1.38810426725109
H           5.01910988676636   25.29495441417445    1.92034278748075
H           4.09281635399076   21.36881597767400    2.58493511866323
