69
 SCF done       -151.360103501414          0.000752679044
C          -4.08145891165968   -0.04647102045083   -1.00436211278329
C          -4.45396934708806    1.18795020082815   -1.52110276636563
N          -3.72087986920095    2.27003279597811   -1.34973953338912
C          -2.59107759217759    2.13491978221236   -0.65248199443509
N          -2.14465647619520    0.99861191045887   -0.11540425021733
C          -2.88757096933749   -0.07575687125407   -0.29351013965600
C          -1.79655146948856    3.32007543090888   -0.47356329697375
C          -0.59247868984449    3.44117079034149    0.18614475793944
C          -0.11924391647200    4.75356801908492    0.14456632982635
C          -0.98395644718797    5.61913765453297   -0.55535302763002
S          -2.36731759108239    4.82069234436630   -1.15640773666280
C          -0.42220543174271    6.92066821469655   -0.55164174586665
C           0.79893178752325    6.87704339034743    0.15146601180039
C           1.03007915344026    5.51303829709405    0.60631421813297
C           2.10511194391951    5.04436507324011    1.30175735667465
C           3.18681135594695    5.86997540557588    1.67740173611673
N           4.07912629507159    6.51973290195610    1.98620148134253
C           2.22278662799702    3.69163893439216    1.68702878190700
N           2.33357616734143    2.59631056867218    2.00710492812260
C           1.43433041994354    8.11036270730778    0.20812833879226
C           0.71480371583166    9.10020873926042   -0.45129828745425
S          -0.77696005430445    8.47843751730147   -1.14902417850404
C           1.05077540391733   10.46978602222059   -0.63548924711074
C           2.19632786423590   11.09898344561482   -0.09032674880211
C           2.50686242272321   12.47175175005375   -0.37931592230373
N           3.61703408612533   13.02652682489047    0.14958790341329
C           4.38361393844473   12.32722494338716    0.92020355846294
C           4.06720669361030   10.97601207647198    1.22008172526616
N           3.01885829621535   10.40498173047236    0.72403013354692
F           4.84088491225864   10.26144947556020    2.02770329315415
F           5.46564003512285   12.91346134329092    1.42137504106402
C           1.70904943542903   13.29402455004454   -1.20563140295209
C           0.53790527668776   12.68406385724125   -1.71027207133958
C           0.22710262333214   11.30591620338221   -1.42396130821612
N          -0.91449472270699   10.92933746356302   -2.00131268313099
S          -1.53541051636954   12.16810721626274   -2.81261979774920
N          -0.39566345951019   13.24282481820382   -2.48228934724191
C           2.07969401426737   14.62984437399632   -1.51551923645518
C           1.38446321198988   15.51359583460853   -2.33245416112237
C           2.04006707807446   16.73076734124712   -2.45845516596594
C           3.24500688164530   16.77884698445535   -1.72938968587812
S           3.56328337582920   15.32598990446724   -0.88835694970600
C           3.83554129322810   18.05088942514267   -1.94112114678410
C           3.01112810234385   18.80091947149350   -2.79730658743382
C           1.85373801946773   17.99707917999674   -3.15062977933299
C           0.81747227317424   18.34912861942826   -3.96512536521564
C           0.75223740947795   19.61366207512569   -4.58692963676400
N           0.70045020231132   20.64159055070630   -5.09226113047326
C          -0.25446161494630   17.47490049452538   -4.24319080530011
N          -1.13020955398514   16.77327355520021   -4.47874178775291
C           3.52636425170389   20.07067447243129   -3.07107783357059
C           4.72989968638789   20.29175867694718   -2.43685499276674
S           5.23619268291385   18.90419103242127   -1.47833527108930
C           5.55579735472329   21.46757367925884   -2.49139129053188
C           5.17993717787310   22.63961633924195   -3.16710700813477
N           5.95353051283228   23.70412185958517   -3.21527277505594
C           7.11704440947114   23.63934876207253   -2.59171117172363
N           7.57905280558670   22.59972292590652   -1.91844374559222
C           6.81178216583594   21.53080375480105   -1.87068483592228
H          -4.68244365506149   -0.92873148516567   -1.14622197702633
H          -5.36534743314888    1.32073682027965   -2.09024223370567
H          -2.50815271248241   -0.98745074930782    0.15023208633794
H          -0.11161259061188    2.60473060919283    0.65881684921879
H           2.37098161265391    8.31068992287270    0.69282023609678
H           0.45366207695556   15.24772530726972   -2.79824636081795
H           3.04904289554765   20.79339177100758   -3.70683635173967
H           4.23085859574179   22.72296606410441   -3.67928266822454
H           7.74761629269835   24.51684882046118   -2.63518625907708
H           7.20491018672404   20.68380909875521   -1.32024095524974
