71
 SCF done       -151.935420802291          0.000837885621
C          -0.21228937000361   -0.16847628010520    4.05103193310130
C          -0.85675041143924   -0.06270177084080    2.82430003415582
N          -0.82002332538347    1.03799889143276    2.09921721770458
C          -0.12873659570608    2.06345727415149    2.59790962085957
N           0.52538956910118    2.06420219188965    3.76069475103104
C           0.48138552511438    0.95775993205455    4.47582042790167
C          -0.08009122203959    3.27940957268799    1.83071058137923
C          -0.67104725923022    3.53669750041254    0.61173022632673
C          -0.41090966121739    4.83991190374974    0.18671846040704
C           0.38520569808030    5.55963883213035    1.10287511388449
S           0.80862606239831    4.63527546747680    2.47327527034880
C           0.58683510344835    6.86831201921579    0.59899374252585
C          -0.08543722548527    6.97542982896273   -0.63688723009272
C          -0.72747536822271    5.70370168455839   -0.93692733579346
C          -1.46479647039013    5.39614134633847   -2.04253230639984
C          -1.69932630737161    6.33084041635496   -3.07335569910341
N          -1.90076377565115    7.08391136036401   -3.91433035001141
C          -2.04084293709848    4.12255599936717   -2.23637313673666
N          -2.51298498575442    3.09189304129189   -2.40707701882177
C           0.04028043433628    8.23130421837568   -1.21136649811660
C           0.80687459275570    9.08717548340596   -0.42701741753560
S           1.38153387900239    8.31412659613501    1.04355625904732
C           1.12701552653475   10.43932000589964   -0.70656676998372
C           1.93856948429705   11.19415604656909    0.17081550267850
C           2.27431127468961   12.57219458708343   -0.08190182585053
N           3.04760787166935   13.23196293179102    0.78695270889636
C           3.49791928741657   12.62567027882201    1.85875804732633
C           3.16534790494263   11.25478489067570    2.10897973114059
N           2.40588975399491   10.59311229733049    1.26930403858194
C           3.65614309593457   10.59655494166295    3.26330252885520
N           4.06499796030516   10.09026973753086    4.20574176626573
C           4.31897505391599   13.34145466253332    2.76442005073238
N           4.98460438552105   13.89454371134221    3.51457770755618
C           1.81622204018762   13.26656805920270   -1.22364940884201
C           1.00674818008167   12.51377600089939   -2.10744799148035
C           0.67002502966628   11.13008861084783   -1.85468389851197
N          -0.10227474923139   10.63340615278101   -2.82154214747999
S          -0.37782841471113   11.76312757135825   -3.92347772684548
N           0.46120965290931   12.94738092104700   -3.24435756394787
C           2.16033249197459   14.62503547787333   -1.44106452916138
C           1.78670935214788   15.41939536640142   -2.51923253571262
C           2.29723000479340   16.70549477364243   -2.41701278440227
C           3.06602426570386   16.89739440930022   -1.25073270035488
S           3.16103813151476   15.49041016284714   -0.28447259773242
C           3.53385435406561   18.23482091172053   -1.24713494331738
C           3.06551149707545   18.88573267233014   -2.40236329249764
C           2.27383115250970   17.94616733598102   -3.17752924047362
C           1.64393714354955   18.17562546070412   -4.36543163507216
C           1.69863701097724   19.42997479500793   -5.00919598229957
N           1.74543127794539   20.45266382542811   -5.52570872295979
C           0.89863362968965   17.17772561718324   -5.02875928223646
N           0.29389838176452   16.37257275072720   -5.57699020719343
C           3.47977720075183   20.21762662935981   -2.47898271099035
C           4.25715868652282   20.58280518699521   -1.40052417894814
S           4.48270664539856   19.25642275867294   -0.26620055101922
C           4.86159499753754   21.86159052147540   -1.14128019962812
C           4.56473684394012   23.01442146865228   -1.88577547033912
N           5.13604029995897   24.17556097843479   -1.64327080761414
C           6.00617551725446   24.22996981633699   -0.64987896601635
N           6.35806958214350   23.22105710887616    0.12833208693721
C           5.79873951345455   22.05453756635267   -0.11603076887936
H          -0.24840757486285   -1.07060326481153    4.63799868501601
H          -1.42348333833887   -0.88323415090754    2.40306619438033
H           1.01878838824740    0.98125735559666    5.41526263205028
H          -1.25224681909083    2.79946448445880    0.08913808914702
H          -0.38757469520449    8.54652360788734   -2.14517239769818
H           1.17387416031241   15.04300116203537   -3.31741480176828
H           3.23484625143089   20.88372204377841   -3.28566707126815
H           3.84284695026113   23.00175733380143   -2.69132999356064
H           6.47031358345523   25.18700890440463   -0.45476916144504
H           6.10517582641610   21.23316001183611    0.52143644981224
