71
 SCF done       -149.411709151982          0.000876451323
C          -0.80848269445702   -1.30455960110399   -1.89053614533230
C          -0.43294150620968   -0.94317152304993   -0.60208492255401
N          -0.14437345811374    0.30026217186868   -0.27214874067236
C          -0.22950710411685    1.21376115845590   -1.23972364622052
N          -0.57887774362079    0.97196927258777   -2.50481495618641
C          -0.86369852016358   -0.27546341019082   -2.82176516905832
C           0.07281454923962    2.58004736034397   -0.90860918583821
C           0.45574562957987    3.09991751332948    0.30846820221506
C           0.65339921191005    4.48048362717269    0.23382375737467
C           0.40899828132537    4.98967259111093   -1.05707466473839
S          -0.05475863625878    3.78017865181091   -2.16820091091710
C           0.62210171295081    6.38935434605124   -1.03357138600289
C           1.00540828786999    6.77042647449226    0.26756508795166
C           1.00881744195189    5.58175289689811    1.11263889314837
C           1.23249755662150    5.52619945598626    2.45576340733472
C           1.44319172321990    6.67660606287365    3.24842673178749
N           1.56534653303241    7.59414327903243    3.92388590899659
C           1.21177626397504    4.30843046186987    3.17015911041884
N           1.20219863653202    3.32669536666215    3.76193305713232
C           1.26761876783158    8.13044849015197    0.38494169902949
C           1.06203892380819    8.79572155686166   -0.81818321561553
S           0.54968408000057    7.71231371068867   -2.10720085786149
C           1.20953904096452   10.17584941380485   -1.05239959985489
C           1.75376176472946   11.13190870887814   -0.18297868558840
C           1.72770623387231   12.46562951558887   -0.72364061458086
N           2.23492238894258   13.49558967873347   -0.04133250088424
C           2.76497280000775   13.23334515800943    1.13212289310363
C           3.36126089111920   14.37466849625268    1.87501849866586
O           3.51148835302528   15.46945273755854    1.37985714513570
C           3.77543374785648   14.06306341389082    3.25555576937709
C           3.80444378659565   12.82378245719653    3.75527388987616
C           3.42546417065985   11.62535008638327    2.98368291337664
O           3.63073604117361   10.50073732316660    3.38265038280946
C           2.79385954180288   11.90731688816448    1.66796841721719
N           2.28889486125861   10.88470088856268    1.01497640477627
C           1.16596046252802   12.52746850152434   -2.00628779926843
S           0.70446269150061   10.93743386787895   -2.52736066426341
C           0.97883977595987   13.67548399205188   -2.79956194589523
C           1.15409238792089   14.99616975552122   -2.40399016967259
C           0.86895872321808   15.88134658621781   -3.43737687887781
C           0.49698630880193   15.23627520292710   -4.63281618819801
S           0.46218156357518   13.53767345916722   -4.47595234509638
C           0.27040881142319   16.21933574309142   -5.62640943935015
C           0.49271310153214   17.48708837745204   -5.06414168232886
C           0.84699140839379   17.32153352443663   -3.66443095040192
C           1.05048848202779   18.30788593401293   -2.74639732724223
C           1.00000974582026   19.67321933050727   -3.10171503160522
N           0.96020029410330   20.78049510814900   -3.39684138287935
C           1.26380664853604   18.05158761985336   -1.37357325340286
N           1.39422413477151   17.88452873722350   -0.24768145429353
C           0.28998650255139   18.52527527217470   -5.97854815160117
C          -0.07544085102603   18.06082164258922   -7.22293371964517
S          -0.17873828436573   16.30373596228527   -7.26919220752744
C          -0.35669442779672   18.82524782478431   -8.40785086978079
C          -0.58883925623129   18.22078017845667   -9.65158022719869
N          -0.84463651536253   18.90962922235334  -10.74403604990117
C          -0.87105003745116   20.22634796903814  -10.62929132903039
N          -0.67256835600376   20.91149055190305   -9.51675887899773
C          -0.42306513590746   20.22761335070063   -8.41955561803912
H          -1.04297089655370   -2.32263964600272   -2.15162216592731
H          -0.35949370166760   -1.66981170955914    0.19697858016875
H          -1.14397564012402   -0.44798118113526   -3.85318832904991
H           0.57690824899886    2.48528615927212    1.18126735633020
H           1.59520463064663    8.64548799466299    1.27031025761042
H           4.09700167631855   14.91485148200667    3.83948671503080
H           4.15081322173361   12.62887120299638    4.76123421058166
H           1.47982959838925   15.25390600662078   -1.41209339359673
H           0.41278808307028   19.56742513835505   -5.74833052391634
H          -0.56285233091082   17.14253379411923   -9.76087434099970
H          -1.07582694319761   20.79404365658347  -11.52664019793067
H          -0.27638568413092   20.81249470771571   -7.52155157162924
