110
 SCF done       -208.900112894842          0.000960432432
C           1.40369968862781   -0.49199965967263   -7.37819099489236
C           1.67940413624094    0.83643379489964   -7.21471016073059
F           2.64348447598419    1.41931324112060   -7.94148853954094
C           0.95769019374429    1.60939175558049   -6.28400319391653
F           1.24877673784025    2.91129392220179   -6.14474103809894
C          -0.02943836780826    1.04258454294673   -5.52777807666731
C          -0.33590362764174   -0.32428832723979   -5.67206098253785
C           0.39097760951256   -1.10680090928395   -6.61469469805461
C           0.09790676631723   -2.48022899896138   -6.78059038545511
C          -0.88972376133203   -3.05410562472269   -6.02430132147154
C          -1.60021143767343   -2.26758844177139   -5.07914295804183
C          -1.34567149693255   -0.93924967269474   -4.89929533915624
C          -2.58657394887777   -3.11242783472303   -4.37508481317465
O          -3.35666743446871   -2.71557059397994   -3.52181151379759
C          -2.41175794667788   -4.47346755217456   -4.91805869719180
C          -1.41630756397270   -4.41664363651425   -5.97352306892050
C          -1.04560354367463   -5.42175267259867   -6.83186567480296
C          -1.58003580734808   -6.72632410229565   -6.88136368560564
N          -1.96038296056946   -7.80291443392510   -7.01082636482962
C          -0.06882755743513   -5.27565221093275   -7.83906730270366
N           0.71183945044387   -5.22666003686817   -8.67985288224826
C          -2.99665199676550   -5.64716153682559   -4.50052427902369
C          -3.97359759527778   -5.91475306709331   -3.53295123616968
C          -4.74032851979898   -5.10186619176133   -2.69788154282180
C          -5.61882261954481   -5.80054496396493   -1.89536617153444
C          -5.54217118998253   -7.18586360173267   -2.10366867514797
S          -4.38599178525541   -7.61477763922668   -3.28889512819396
C          -6.41973928875207   -7.97677975505732   -1.33219948632389
C          -7.26647367325993   -7.29793360418336   -0.45750510999331
Si         -6.92602462292050   -5.43608224723383   -0.57280947619703
C          -6.17201091857015   -4.72918623221811    1.02045381356638
C          -8.40330510671038   -4.44410311411948   -1.23281134375360
C          -8.10343796718885   -8.16657072171153    0.23411129500719
C          -7.91220651517606   -9.49840448465477   -0.08476980261449
S          -6.64752779594115   -9.68128655794697   -1.28194133046924
C          -8.57922890140283  -10.66275156615380    0.42644109794211
C          -8.04050233871750  -11.92790222417629    0.23326274429909
C          -8.64987179266494  -13.07507427024849    0.71189213006638
C          -9.85056156060574  -13.04651828634519    1.40960860002307
C         -10.44679571229680  -11.76604760809157    1.62766834128708
N         -11.59771616222746  -11.67155599386068    2.31713706061485
C         -12.13083407092183  -10.49234361491918    2.49490575747632
C         -11.53448697482465   -9.33454058770940    1.97325016028509
N         -10.40454624357048   -9.38675446111412    1.32001262329338
C          -9.81641189875171  -10.58236643960446    1.13662238884664
C         -10.44455934083327  -14.26280288639703    1.88801548293626
C         -11.72164435583705  -14.48890782619743    2.36845458280539
C         -11.95656967364239  -15.80804144423373    2.74026592285249
C         -10.83403243081145  -16.61061663785907    2.54655554047837
S          -9.50273872756321  -15.74023586068379    1.89409605535138
C         -10.96145490566422  -17.96872265519547    2.90406828536749
C         -12.19940879027419  -18.36249371433017    3.42093704082479
Si        -13.36749615299431  -16.86897105278113    3.42937489774337
C         -13.89788802022566  -16.35635589614468    5.17972706609020
C         -14.80843369545708  -17.06618816818870    2.20977664494896
C         -12.20547756585879  -19.70060674883699    3.76916507832883
C         -11.00946123763980  -20.36155747219863    3.49898707960792
S          -9.82684069621459  -19.25222760943699    2.82838490867532
C         -10.72097868706319  -21.70000131157813    3.81858247879491
C          -9.66855145405171  -22.48192848569850    3.43117559432819
C          -9.26527507695981  -23.63420216957504    4.27331470554233
O          -9.89994900866086  -24.14048618021245    5.17145230069064
C          -7.89947656499725  -23.98118780437719    3.82171580300667
C          -7.02218241636517  -24.88197290816573    4.35128567614000
C          -5.74150596717705  -25.01745151317527    3.76853256342598
C          -5.39476170361251  -24.21282068123407    2.64473958482157
C          -4.11316382508848  -24.34828516354282    2.07469782003321
C          -3.21879800572667  -25.24133846702092    2.59426515117010
C          -3.56276996169933  -26.03666256093912    3.70503327170752
C          -4.79762524181551  -25.92871615987407    4.28047796934448
F          -2.66443217670237  -26.90291159637029    4.19579418265217
F          -2.00023032355079  -25.36853291059500    2.05032884552781
C          -6.32883731953904  -23.29489826332346    2.11104072292226
C          -7.56357824701521  -23.18471451333349    2.68996159234861
C          -8.72181032837355  -22.36207935204527    2.34899625361704
C          -8.97336417853087  -21.82503930164371    1.11146361391179
C         -10.23548016388465  -21.31937115123055    0.74020155570051
N         -11.26489504256260  -20.94839630884949    0.39179536342557
C          -8.04056884147066  -21.81812894467484    0.05711401658831
N          -7.30708190455743  -21.77622846112797   -0.82528606676577
H           1.96492228879825   -1.06916504151889   -8.09630134383999
H          -0.57275122902898    1.64754056974989   -4.81892139623383
H           0.66910510028450   -3.04174498214158   -7.50133218416326
H          -1.90614077158819   -0.36695366645332   -4.17564995124405
H          -2.63883339634982   -6.54337484797416   -4.99343688545537
H          -4.63598977379285   -4.03298202922824   -2.69869438386720
H          -5.34864320804837   -5.33836662243550    1.38055672356658
H          -6.91634239230200   -4.67398918362470    1.80809739385187
H          -5.79465249261053   -3.72612158330189    0.85027393806879
H          -8.81982759860276   -4.89060977512762   -2.13018499219064
H          -8.10339378385010   -3.42946788654775   -1.47298614077083
H          -9.19199395630823   -4.38942629963356   -0.48961670208444
H          -8.83750610089558   -7.85745137799019    0.95329146091324
H          -7.10794143739082  -12.02182523912183   -0.30412862147560
H          -8.17477801189310  -14.02808138683478    0.52954680127573
H         -13.05289878510687  -10.45682740219088    3.05946070060533
H         -11.98185693147518   -8.35688608331474    2.09214403057516
H         -12.44632156453258  -13.70035681590223    2.43708806067574
H         -13.04752477425511  -16.25978817626364    5.84758552063189
H         -14.57572982729056  -17.08895404470235    5.60544670274961
H         -14.41490345867995  -15.40273784212154    5.15794233954839
H         -14.46433601498905  -17.41101671021217    1.23951674421645
H         -15.32507515115257  -16.12257519162745    2.06671022510463
H         -15.53082107638721  -17.78552958713736    2.58178767618507
H         -13.05256368556580  -20.21455497548791    4.18754546789441
H         -11.37671043096312  -22.15085522093960    4.55811623972437
H          -7.29885067935567  -25.48246375666666    5.20437150604739
H          -3.83506451329799  -23.74924020519581    1.22171043580589
H          -5.04586987094793  -26.54474116548932    5.13054780893379
H          -6.04115279311374  -22.69215506792672    1.26425050126984
