105
 SCF done       -216.725908726974          0.000536997882
C           1.64128124232367    1.02755267273182    0.31840286034391
C           3.00677809308891    1.00660832950585    0.36587803099837
F           3.70072621361142    2.15072596061495    0.30238190916052
C           3.70205938350185   -0.21406751362554    0.48049705916775
F           5.04154930343509   -0.20477264470832    0.52176277460210
C           3.02147016593803   -1.39716819094830    0.54825540127746
C           1.61373040306007   -1.40875996718117    0.50270154444919
C           0.90933600506679   -0.17534880944619    0.38505050399014
C          -0.50306450541612   -0.16277953583634    0.33426318764615
C          -1.18888231041715   -1.34749658066735    0.39955629104472
C          -0.47815879157729   -2.57311675175167    0.51566660700275
C           0.88532019362357   -2.61705965770821    0.56762809286663
C          -1.43092375485232   -3.70244240412423    0.55767623963531
O          -1.13193455764315   -4.86994857511258    0.68895980564336
C          -2.77162031839368   -3.09488226324392    0.35428372063466
C          -2.61518333576347   -1.64720574293955    0.36235546936509
C          -3.62467117766183   -0.72410434941761    0.40781457021517
C          -5.00303587936066   -1.02509528668021    0.47243039481476
N          -6.13835362493290   -1.17547857314922    0.55296095572882
C          -3.41304540111352    0.67064737422944    0.43951827471993
N          -3.30109959007451    1.81281989824129    0.46258174765336
C          -3.91671640257106   -3.72846887211054   -0.02471903252833
C          -4.22134118608164   -5.12696666050297   -0.04532597993959
C          -5.15598200418756   -5.58880017874893   -1.00736462819823
O          -5.63993636666823   -4.66411926654163   -1.86946849688420
C          -6.59175458241923   -5.06082118317231   -2.82990695813645
C          -5.48320054602395   -6.93434301038707   -1.03535615456641
C          -4.92635502042258   -7.83483117520209   -0.13431906171575
C          -3.99164041497909   -7.38521693914040    0.82354861771617
C          -3.67629887325454   -6.03822355753028    0.86278419661859
O          -3.41339156721419   -8.32342692965584    1.60799538397868
C          -2.42103596370549   -7.91236746270360    2.52303441180801
C          -5.27285247713085   -9.25022190808527   -0.21928032673188
C          -5.62725561684448  -10.00716238761927    0.90443794741533
C          -5.82661066819159  -11.43193782379980    0.83555608822417
N          -6.13790715334270  -12.11510313444978    1.96722070013115
C          -6.26301275325389  -11.46687040779159    3.07177428778905
C          -6.11663912717312  -10.04710148477024    3.12674927128047
N          -5.82099444287001   -9.35959388508018    2.08105220494234
F          -6.32094322145808   -9.39373815324189    4.26884444798406
F          -6.57991476275497  -12.15570715058930    4.16593135109849
C          -5.67638781697650  -12.14079339222229   -0.36412422965973
C          -5.43348738744559  -11.36921168249951   -1.51020722133388
C          -5.24119408841963   -9.93665672446964   -1.44180475498932
N          -5.01932988921495   -9.41059245278406   -2.65360563365484
S          -5.07248615314619  -10.58331514367566   -3.74196348350684
N          -5.37138277865624  -11.81402733656854   -2.77084078793089
C          -5.73937990715982  -13.59808734063108   -0.43367952401061
C          -4.73362113174819  -14.31027341584939   -1.12594653201067
O          -3.68957752393098  -13.58769110584970   -1.59888068902453
C          -2.64440850084136  -14.26314594605514   -2.25781626989103
C          -4.85502457525821  -15.68003141012964   -1.23906426319810
C          -5.89224413009117  -16.39561415571047   -0.62260306259445
C          -6.86541576367401  -15.67613983333583    0.10868804109136
C          -6.77486813834199  -14.29208321780978    0.17190035679843
O          -7.87535623970375  -16.38703881296929    0.66404853858957
C          -8.86641391261070  -15.70641129830516    1.40268982584027
C          -5.92931711386864  -17.81048594784700   -0.84954236460867
C          -6.47693047500732  -18.84947003998067   -0.16644817645896
C          -6.65355089334349  -20.14320644840087   -0.88799909102517
O          -6.17677544328200  -20.44634741406436   -1.95742653651626
C          -7.56537891443479  -20.94140549257155   -0.04445590552056
C          -8.13288271667086  -22.15508649155400   -0.30435686845141
C          -9.01068493253364  -22.72058969443851    0.64761280810038
C          -9.28470981710972  -22.01120466502562    1.85285284012339
C         -10.16899807391688  -22.57656462277591    2.79354027865752
C         -10.75054846279749  -23.78917959424987    2.55085533588698
C         -10.47616086897941  -24.49095182255794    1.36015218203167
C          -9.62437236173077  -23.96904409512147    0.42755852594886
F         -11.06089292259967  -25.67848623226869    1.14844195450628
F         -11.59148532082193  -24.32399400594234    3.44665578249497
C          -8.67252854652705  -20.76059646458960    2.09890948683137
C          -7.82028133018585  -20.23457005388799    1.16513630317600
C          -7.03617288707544  -19.00239925413776    1.15691418271371
C          -6.72545304055532  -18.24967580789718    2.25811495232274
C          -5.75022052239579  -17.23297980815834    2.24315706211328
N          -4.93939242784091  -16.42148795919321    2.26455473581305
C          -7.29210967598119  -18.45066693880070    3.53217609976849
N          -7.74884780750635  -18.56008818296721    4.57969447687814
H           1.12473162135052    1.97065257788845    0.23119452317068
H           3.56820299502552   -2.32302493854102    0.63561084562126
H          -1.00723927770075    0.78500472578141    0.23651292786413
H           1.40072835558875   -3.56155318547148    0.65466712808410
H          -4.70668144147198   -3.11083134816634   -0.43656807598050
H          -6.84048310064124   -4.15660861141522   -3.38298599439868
H          -7.49543990293203   -5.45611648121209   -2.35720224307813
H          -6.17896127923760   -5.80666661468737   -3.51556033771911
H          -6.18712023722001   -7.31656900067051   -1.75525605651458
H          -3.00639530011000   -5.66122027743514    1.61362545394351
H          -2.03138172299862   -8.82959963132139    2.96189738467094
H          -2.84626246294568   -7.28685404451373    3.31363145566643
H          -1.61314594750840   -7.37271355164517    2.02081135032459
H          -1.91559361248546  -13.49539682691277   -2.51292672196522
H          -2.99496133800244  -14.74701971258244   -3.17450763765950
H          -2.17391737109138  -15.00539821468192   -1.60581350493449
H          -4.11767472605997  -16.25046118937530   -1.78084339453161
H          -7.51829279150201  -13.72078160497419    0.69991172902935
H          -9.53154786881016  -16.48131779414860    1.78202780530170
H          -9.43584939196931  -15.02008993063241    0.76957573988550
H          -8.43058376693307  -15.15878685164795    2.24297634812074
H          -5.47163953841762  -18.11830898299855   -1.78762148842626
H          -7.91752499323304  -22.67646883724947   -1.22464578194628
H         -10.38731725869253  -22.05467203194048    3.71214037428106
H          -9.42460516312059  -24.51832703240672   -0.47914453295175
H          -8.89972659231884  -20.24511212139433    3.01845061748092
