153
 SCF done       -290.216465220485          0.000676199157
C         -16.11905330695472  -11.14082378028955   -5.16453756499647
C         -17.05428703354206  -12.12010096829329   -4.98018539292476
F         -18.12297290149660  -12.19132906388589   -5.78504307054243
C         -16.90843783319124  -13.06537306530630   -3.94526922680218
F         -17.84062398716868  -14.01560571370883   -3.78779329936137
C         -15.82886982367953  -13.01811162594557   -3.10860220374804
C         -14.84777860174954  -12.02115477727935   -3.27299261345858
C         -14.99446356919833  -11.06387923691799   -4.31840108777027
C         -14.02354399500700  -10.05266947203305   -4.50131473340481
C         -12.94021046263244  -10.00188202776100   -3.66423265518852
C         -12.79794012355376  -10.96567620371686   -2.62904922639519
C         -13.71908158535688  -11.95221478807562   -2.42643395666447
C         -11.54866137467131  -10.71258257791207   -1.88138603726266
O         -11.15165106595218  -11.35413626059063   -0.93204790164122
C         -10.89419211102047   -9.57977432930870   -2.57820054509815
C         -11.79838648038199   -9.09550919656258   -3.60604738432624
C         -11.66025904407212   -7.94387757569456   -4.33555953707005
C         -10.61013843107261   -7.01167347400997   -4.19218974072882
N          -9.80720604896139   -6.19421803185403   -4.11871430348242
C         -12.59019641262996   -7.51103563146208   -5.30376503404568
N         -13.30906772771348   -7.11421482771542   -6.10595660610227
C          -9.59053119580295   -9.18269152215505   -2.45496662278299
C          -8.64250615287229   -9.53549981100849   -1.47023596831293
C          -8.80721154638597  -10.00269465848929   -0.18639496036438
C          -7.59776844736388  -10.23361498766370    0.49361817260766
C          -6.46318931025457   -9.90221185496954   -0.29983477665099
S          -6.94123022836561   -9.30889680745061   -1.86495210907430
C          -5.16209675112216  -10.01022044056093    0.15930037661158
C          -4.00090827367991   -9.62830382836832   -0.65059986898821
C          -3.02511444953680   -8.78354001941269   -0.12251991107465
C          -1.92909480848702   -8.42242046327504   -0.87762512981007
C          -1.76776481069425   -8.89422601600861   -2.17655140410316
C          -2.74428061895664   -9.73055320581208   -2.70133308907880
C          -3.84928008227063  -10.09126356779510   -1.95404960146466
C          -0.55871872267278   -8.51346574657882   -2.97205781355467
C          -5.00320690729503  -10.49657745304857    1.47370829082507
C          -6.13353289833695  -10.80568059077093    2.27717248122260
C          -7.43413504691162  -10.69814723885349    1.81807808130862
C          -8.58577075400205  -11.07597362736527    2.64326830452619
C          -8.70065846288091  -10.61656114344322    3.95246415595139
C          -9.78364736007980  -10.97830864823472    4.73036635573732
C         -10.77517433060368  -11.81245123838639    4.23079619561255
C         -10.65195243379461  -12.27764586179595    2.92559927114577
C          -9.57732010077335  -11.91716650849130    2.13904822332079
C         -11.94741240039244  -12.21830904989354    5.06975506704070
S          -5.64731745395344  -11.39657427282876    3.84835479341110
C          -3.95701055023610  -11.28588059221414    3.40225565182865
C          -3.79367435021271  -10.79359525238150    2.12927178413030
C          -2.94809984415784  -11.70066948085775    4.32448439399702
C          -1.56644934844475  -11.75638933996141    4.03106578188253
C          -0.61237442568101  -12.24063725407803    4.99220755213402
N           0.69157819297641  -12.30870623725677    4.65466147519099
C           1.07775333959114  -11.92905327944630    3.48177921860661
C           0.13951745739959  -11.43200772908500    2.54197308082011
N          -1.11997185266249  -11.35921440109126    2.81924988432446
F           0.52811097265700  -11.01758799352075    1.33577125157130
F           2.37139696847532  -12.01780025489557    3.18655500150173
C          -0.96496945657677  -12.65974004096128    6.29342119019493
C          -2.33972230572616  -12.57026865612708    6.60388807584693
C          -3.30072794312990  -12.11223238393788    5.62829608788864
N          -4.54152471629178  -12.12269709040242    6.11589879283135
S          -4.51246002476936  -12.64381387419394    7.63087581610472
N          -2.93195402962233  -12.88862586442148    7.75746740673589
C           0.01029270630397  -13.15264964440784    7.21066138667711
C          -0.21273185069455  -13.52803148159907    8.51574858139214
C           0.93823262533301  -14.00087005407982    9.17435157834578
C           2.06617571669859  -14.01812013442558    8.30970251783742
S           1.67623417524568  -13.36904149303682    6.73479381635634
C           3.30970560446145  -14.47056113669396    8.70875760361941
C           4.48576919743876  -14.41357257504889    7.83404770736261
C           5.66524437966259  -13.82408455755346    8.28418982046642
C           6.77829311839761  -13.76657092381604    7.46806614522571
C           6.74623049545794  -14.29344461974560    6.18271753235690
C           5.56389928385294  -14.87199537549041    5.73282727477492
C           4.44697249891645  -14.93092794075853    6.54172339401733
C           7.94492204539240  -14.22002661694487    5.28938281456293
C           3.40507654936780  -14.96899162481716   10.02540547253765
C           2.27866879918001  -14.94161825841306   10.89320596959070
C           1.04559341315337  -14.44284822380291   10.50980018880287
C          -0.08543425403527  -14.35035596359116   11.43925390113443
C          -0.78314285858974  -13.15268477680775   11.58000362867296
C          -1.83387283057082  -13.05466033959657   12.47029736001660
C          -2.22364775048567  -14.14442199226564   13.23983947635825
C          -1.52776675287895  -15.33885458042319   13.09402068962057
C          -0.47124669232210  -15.44317022453382   12.21118963085985
C          -3.34641970107613  -14.02897782434481   14.22350787655555
S           2.68283144244305  -15.57821827102215   12.46327635769784
C           4.33275653212489  -15.89342691211800   11.95587847058757
C           4.53609356452980  -15.52850472782020   10.64447528162791
C           5.21328830174182  -16.54366795088814   12.85008746407357
C           6.56576583065155  -16.69940393115341   12.76988161954570
C           7.21064959272403  -17.79183009524207   13.54791026648819
O           6.72009883637765  -18.42867255324029   14.45085409967209
C           8.54566882281356  -17.96558020395329   12.93697000304540
C           9.49243727128792  -18.91266824015535   13.19913873748502
C          10.69595571593258  -18.90417978976198   12.45835403695300
C          10.89252986272700  -17.91248147343372   11.45380196025926
C          12.09158157888730  -17.91635476470104   10.71326740817234
C          13.05122472027054  -18.85740916248801   10.96051725295075
C          12.85677883589504  -19.83599559192965   11.95564391913440
C          11.70419906674799  -19.85989177366613   12.68979223218004
F          13.81438494418917  -20.74717527749212   12.17582738668110
F          14.19038537106419  -18.85847144651640   10.25528286565624
C           9.89757840330036  -16.93754486482563   11.21136519054657
C           8.74336206183349  -16.96118234277472   11.94698125471421
C           7.58006724771798  -16.07754869521393   11.94872943408516
C           7.56567007919163  -14.79200773293555   11.47173120096643
C           6.53844431003215  -13.87529403060466   11.77363765323448
N           5.74760900912413  -13.08377345823256   12.02939844621833
C           8.59334504224322  -14.22642362844180   10.69338282791971
N           9.38298187408685  -13.72969577475309   10.02376414401790
H         -16.24648070689755  -10.42416365664263   -5.96078531635891
H         -15.73147703841802  -13.74964601046931   -2.32174885279149
H         -14.15871227335454   -9.34774241872297   -5.30549746009901
H         -13.58720275619164  -12.67104995855920   -1.63202770325556
H          -9.19352226730189   -8.54991119746403   -3.24084464763015
H          -9.77092257248002  -10.14062080587269    0.26444056694058
H          -3.14590214323767   -8.39072069592708    0.87651148354040
H          -1.18310694802151   -7.76428535448745   -0.45607461130023
H          -2.63845336457426  -10.10824756753424   -3.70812903047567
H          -4.58679961186833  -10.75901150089465   -2.37432628752206
H           0.32125151593253   -9.01905207874357   -2.57410978134684
H          -0.38122951529933   -7.44128725073048   -2.91058002731851
H          -0.67304030107157   -8.79238005607981   -4.01635111680902
H          -7.95089297171826   -9.95095180029459    4.35311382086571
H          -9.86054579066214  -10.60255518298531    5.74065716231590
H         -11.41067035992399  -12.93078995673576    2.51966174284117
H          -9.49695640894212  -12.30369950688240    1.13463886631130
H         -11.97414630408928  -11.65907060931280    6.00146961999176
H         -11.88931482111635  -13.28065234682232    5.30672339719336
H         -12.87871876503892  -12.04959659585889    4.53159965181927
H          -2.82819664123442  -10.67519179861716    1.67714427256595
H          -1.18543260749476  -13.47594135072723    8.96842159178939
H           5.69372319381912  -13.37748469969106    9.26751916463715
H           7.68363458314493  -13.30532321377144    7.83643052000617
H           5.52049164920145  -15.28258544076767    4.73436042452926
H           3.54355584373445  -15.39988834233136    6.18160423544381
H           8.84274562625784  -14.00068473681632    5.86145304123826
H           7.80802681449739  -13.42984464500748    4.55089791240242
H           8.08466089830811  -15.15608071304638    4.75196454001704
H          -0.47840368756749  -12.28901474315178   11.00764475430501
H          -2.35798780934225  -12.11520630418569   12.57364317660574
H          -1.81824521095277  -16.19860167254694   13.68042810963180
H           0.04438165297431  -16.38550643448332   12.10025165914351
H          -4.03800406862371  -13.24082017748204   13.93550766780641
H          -2.94978807192104  -13.78637135276069   15.21002083587516
H          -3.89048916201746  -14.96733553677324   14.30406454793328
H           5.45311345385978  -15.71541546655694   10.11449681780114
H           4.74472111679097  -17.06500308549426   13.67937914256795
H           9.32629164271750  -19.65897068432099   13.96094649127324
H          12.25846445314301  -17.17235094423835    9.95009180232592
H          11.57004517173768  -20.61562403166002   13.44778573074773
H          10.06829571014104  -16.20112610334923   10.44205936436196
