113
 SCF done       -235.005462270312          0.000967921551
C           0.97027186554834   -9.23690300986152  -13.20648881527118
C           0.39050810952124   -8.34394057324225  -14.06323816840440
F           0.91943488664461   -8.13321783598502  -15.27617565011573
C          -0.76614369647170   -7.63371621539651  -13.68420245447828
F          -1.31255492619659   -6.76272525595924  -14.54405324745708
C          -1.32694142834114   -7.82614214127238  -12.45278768441509
C          -0.75078882647806   -8.73667149469130  -11.54589052872966
C           0.41771391539890   -9.45695913879452  -11.92861371903005
C           1.01603891734079  -10.37248611425974  -11.03297829787560
C           0.46434747414966  -10.55903277254599   -9.79261382249332
C          -0.69887821178045   -9.83170493962354   -9.41671358833220
C          -1.29905362375501   -8.94231837917885  -10.26018920171128
C          -1.06592395181774  -10.16705956891856   -8.02531926619905
O          -1.92625312321358   -9.62757245934722   -7.36474881037861
C          -0.06026285437086  -11.16799136760586   -7.58208733771209
C           0.86273107867622  -11.40714418942205   -8.67354250060805
C           1.89045031030444  -12.31376977274659   -8.68345919845489
C           2.22951289269528  -13.16787493642635   -7.61245962283948
N           2.56894082846914  -13.90160188820207   -6.79733908403822
C           2.74690565135207  -12.52373997506715   -9.78431080272833
N           3.47874021152973  -12.73174029493385  -10.64388293105424
C           0.08134590374056  -11.60198803826336   -6.29787984993455
C          -0.89787916347175  -11.49078416981006   -5.27106839050979
C          -0.48339387816024  -11.23196835672903   -3.94153939633068
C          -1.42519746952434  -10.99677640069411   -2.90004015979639
N          -0.99188690845510  -10.68561380896436   -1.66702606182934
C           0.28780900365995  -10.59361692094846   -1.42531391580078
C           1.23348180890665  -10.82853557903546   -2.47190274379573
N           0.83527348924452  -11.13358299708213   -3.67671863075462
C           2.70109090027912  -10.76339803241281   -2.22373231081307
C           0.70893557797367  -10.27337440219902   -0.03294339570922
C          -2.82638279448063  -11.09131933411242   -3.10947478891612
C          -3.24148727673746  -11.41264896590569   -4.41821646149556
C          -2.28420627976059  -11.63167009470954   -5.48024197827070
N          -2.88659618273226  -11.98317624701863   -6.61755047899368
S          -4.47465896140943  -11.95692891650658   -6.39246715221467
N          -4.49475942290736  -11.52909079585946   -4.85657188111147
C          -3.70593046299639  -10.90153796262635   -2.02115282329337
C          -5.01675967628661  -11.38926258388389   -1.87429913945005
C          -5.60118363383584  -11.02323797153545   -0.60966879046052
N          -6.87295977848737  -11.29877014673156   -0.35956326949916
C          -7.54008928555160  -12.02196376160325   -1.22900755279793
C          -8.94889650344586  -12.34936855541376   -0.90749170273999
O          -9.47876423440812  -12.01941660182073    0.13373208409426
C          -9.62923265515371  -13.19384949954193   -1.90546264232856
C          -9.02068077728189  -13.70613959189950   -2.98040052145246
C          -7.61395955320915  -13.44013771717319   -3.33330119736635
O          -7.11246669353767  -13.86335741080014   -4.35425317819769
C          -6.89450093935035  -12.55110456687342   -2.39000663311037
N          -5.66616432990256  -12.20215809993108   -2.69792812821740
C          -4.71728618405109  -10.29311921388214    0.20731841875502
S          -3.20651610673243  -10.04550867829631   -0.59931421493588
C          -4.98235383827910   -9.73826883317974    1.47519960545173
C          -4.15754076271025   -8.69788959805235    1.97560771642246
C          -4.48296900450987   -7.96937481575487    3.15232791077103
N          -3.65409469896531   -6.99208221888494    3.56947378039446
C          -2.58289503256071   -6.70924297146329    2.87826432937361
C          -2.28264365276494   -7.41054704456099    1.67023788106771
N          -3.06008652436688   -8.38081509627907    1.26885600446854
C          -1.09647959203402   -7.07971566686889    0.83252858279890
C          -1.69476284246326   -5.62951280483852    3.39362127837230
C          -5.68283719905418   -8.21106923810810    3.87675953879738
C          -6.45093214048605   -9.31562136875757    3.44444131383644
C          -6.08318620967826  -10.09307301037445    2.28224363862760
N          -6.88958992327717  -11.13859986921429    2.11178841597619
S          -8.02395092257307  -11.12408543868476    3.23057885931689
N          -7.53781756149375   -9.81562780803647    4.03790392776551
C          -5.96477606580204   -7.40052196195743    5.00391179270067
C          -7.12681626257085   -7.18669937667712    5.68382451140856
C          -7.05340131594201   -6.63914169357127    7.06625627327531
O          -6.08726152108835   -6.15043355696744    7.60551542805609
C          -8.39317375767721   -6.86956363345170    7.64540547784599
C          -8.82210206998017   -6.65871456121365    8.92344516287660
C         -10.15400820744175   -6.98646572646875    9.26327069889035
C         -11.01448376223823   -7.53345815839009    8.26762458493496
C         -12.33849621867892   -7.86691771336622    8.61697793630445
C         -12.78752033705027   -7.66347516894065    9.89166453798783
C         -11.93636524466351   -7.11990796737591   10.87400674282974
C         -10.64653201753565   -6.78802854116203   10.56765432276767
F         -12.40334630381696   -6.93124977662752   12.11675891155809
F         -14.04751786338275   -7.98100769876483   10.22077011168362
C         -10.54374682205654   -7.73171944279109    6.94870364706707
C          -9.25267173953973   -7.39774772764779    6.63999535903332
C          -8.51066397774893   -7.46001441991050    5.38277286181017
C          -9.07042053956226   -7.53437942372971    4.13341885894353
C          -8.34605472865328   -7.31642600897423    2.94541867793164
N          -7.79534191147940   -7.10844662346399    1.95963169368017
C         -10.44326084359703   -7.74920409523203    3.90179640518166
N         -11.55099599432933   -7.93719277669727    3.66570259863116
H           1.85505934095118   -9.77289495985278  -13.51268071787292
H          -2.21166379538302   -7.27379217184782  -12.17728320920394
H           1.90377086993723  -10.89609937587880  -11.34897377663009
H          -2.17913169178458   -8.40038083506048   -9.94892117541428
H           1.03059749877037  -12.00908181761143   -5.97192048450376
H           2.98600386460985   -9.76748095720827   -1.88769245411139
H           3.23189206197474  -11.00077007385611   -3.14080948539843
H           2.98595045288220  -11.47371162159084   -1.44927128464510
H          -0.17405402326680  -10.11874711748028    0.58060890702892
H           1.33023538447980   -9.37934967111336   -0.01919955327825
H           1.29547459368417  -11.09310036919022    0.37965101654752
H         -10.66894176531635  -13.40542259244624   -1.69459338998502
H          -9.55089913258341  -14.34669902715471   -3.67249311376142
H          -0.17869914335671   -7.21154371947988    1.40392120700976
H          -1.14283210825648   -6.04030834425879    0.51136899954388
H          -1.08283385053503   -7.72718225733441   -0.03935863042706
H          -2.09986708041839   -5.24450976501218    4.32456597088787
H          -1.62654165553899   -4.81953844091779    2.66895753976810
H          -0.68980549562829   -6.01171325227159    3.56589752391208
H          -5.09311475715448   -6.90461013459553    5.42148942968417
H          -8.15482469638320   -6.24938849618983    9.66666494474221
H         -13.00485185322564   -8.28090789720940    7.87647592430446
H         -10.00672749260398   -6.37318012958719   11.33076344694641
H         -11.21386114724762   -8.15246738989932    6.21620460541570
