155
 SCF done       -290.789334464264          0.000742990908
C          -8.97861504680247   -2.12558048356185   -7.09842894593972
C          -8.22690106142652   -1.87307828809043   -8.21136426980450
F          -8.60975518427045   -0.93061289338653   -9.08315661345359
C          -7.04255145568297   -2.59657005960124   -8.45664340369911
F          -6.32465266738279   -2.32665078560409   -9.55562628948699
C          -6.62635743154180   -3.56333058411244   -7.58499614674537
C          -7.37877685295941   -3.84631063974760   -6.42850310464442
C          -8.57689674350818   -3.11591847489708   -6.17937422172213
C          -9.34866880605916   -3.38227974637998   -5.02528618042780
C          -8.93171238939347   -4.34678742791632   -4.14583945910289
C          -7.73090901529689   -5.06340549250470   -4.39819657156266
C          -6.96818121473312   -4.83448333273991   -5.50671974224228
C          -7.48334190154605   -6.02108163124857   -3.30120473792579
O          -6.57165240338473   -6.81969675857749   -3.26051637610314
C          -8.55608029059099   -5.77392844812855   -2.30809157200963
C          -9.50062220432659   -4.83415065523170   -2.89343626552875
C         -10.74247032094706   -4.50911522145383   -2.41472654084214
C         -11.35369284643523   -5.05529875986565   -1.26530124004355
N         -11.93459464896375   -5.46357968041222   -0.36277635841490
C         -11.61621220658440   -3.60200080129458   -3.05125421561006
N         -12.36849245373276   -2.87102190537805   -3.51748160962458
C          -8.62326473499238   -6.18842087604103   -1.00575404041964
C          -7.80512077118793   -7.06989660187011   -0.26708991508747
C          -6.81910808285307   -7.95430383735652   -0.64353036970872
C          -6.23956006135016   -8.64762680396403    0.43236746974123
C          -6.78316568428955   -8.25487222627538    1.68885333483252
S          -8.06219476379825   -7.09415958403242    1.47807415775665
C          -6.34011943093074   -8.76548482532216    2.89753541502015
C          -6.96043132204320   -8.41492204902072    4.17882077207812
C          -7.33967603957873   -9.41648311239714    5.07045412576919
C          -7.93855440333369   -9.09538353321578    6.27237815511356
C          -8.17136703239470   -7.77129424779076    6.62401290998457
C          -7.78889155092549   -6.77416513062994    5.73352260902498
C          -7.19609034260963   -7.08694222623183    4.52681303456009
C          -8.84041078211779   -7.42212028933301    7.91674102514125
C          -5.25945568656197   -9.67147097790851    2.83270639926015
C          -4.72585175715911  -10.07485632794558    1.57939741846889
C          -5.20741602995176   -9.61117629499527    0.36993451932637
C          -4.68965642020244  -10.10683052064328   -0.90830148713810
C          -5.56211229892167  -10.55186105143824   -1.89851114402442
C          -5.07283993584880  -11.06875464466378   -3.08240764680815
C          -3.70624168760823  -11.15364963646020   -3.31473701115848
C          -2.83746912996315  -10.69890493334294   -2.32784299476404
C          -3.31776422339226  -10.18469657875092   -1.14189666512063
C          -3.16424017645300  -11.72033639372589   -4.58912684821583
S          -3.42130825902941  -11.22416944936554    1.77781794059668
C          -3.54541852885915  -11.09493746529841    3.51421667198553
C          -4.56003943457313  -10.25083912842195    3.90760115431836
C          -2.61721372969025  -11.76874366281808    4.35759627965361
C          -1.59944522269791  -12.57351204053751    3.80275493070614
C          -0.57447303879011  -13.18284997255558    4.60689761670197
N           0.36324798748756  -13.93590165778335    4.02043195693018
C           0.36642532597158  -14.08710340026289    2.71820499112213
C          -0.63992480559585  -13.46006522706434    1.91447445425477
N          -1.58487432427820  -12.74498053809319    2.47565801421243
C          -0.63229956106075  -13.59924615575442    0.50477719033009
N          -0.59497723452918  -13.71588007156724   -0.63405349525244
C           1.38396232883828  -14.87522643195218    2.12619376091500
N           2.20383437223868  -15.49814809078426    1.62414768498916
C          -0.49469315728793  -12.98774620143107    6.00206707652904
C          -1.54657187584715  -12.23610097207152    6.57213545431289
C          -2.59569370486600  -11.64558219956197    5.76563562923506
N          -3.47627228746176  -10.98471915225285    6.51798980301371
S          -3.04603718400747  -11.09231276605107    8.06022129537902
N          -1.71946623805683  -11.97389110564096    7.86813544680278
C           0.61920345707158  -13.48175132862896    6.73857939119148
C           0.92713982424815  -13.21156780001596    8.05318866967144
C           2.14090236233583  -13.78518390477154    8.47515988986874
C           2.77303178356270  -14.51052982233954    7.43133033549404
S           1.82763683695433  -14.47216792262923    5.96180978915320
C           3.99318829490428  -15.14703986176161    7.58027327080264
C           4.57430633421459  -15.95182741813543    6.50106039658236
C           4.65315039188983  -15.45681779187865    5.20061237916634
C           5.14186891682274  -16.24448322190915    4.17929635356792
C           5.56649277739348  -17.54717906167121    4.42072076761041
C           5.49819448377850  -18.03457403276206    5.71967262189535
C           5.01028235338550  -17.25128842421703    6.74824565076410
C           6.08760874298874  -18.38902772496187    3.29879601725499
C           4.62979272888358  -14.99834933222911    8.82952706150428
C           3.99677978918697  -14.26527032783954    9.86892231302092
C           2.75902245174951  -13.66505579980545    9.73833348683123
C           2.13616725308076  -12.91399757619735   10.83350525709911
C           2.85164396570460  -11.92248976895657   11.50210365132968
C           2.26963765047866  -11.21394353338827   12.53341506877309
C           0.96208611702541  -11.47365573185209   12.93040949342937
C           0.25140076384102  -12.46220749237952   12.26081519773228
C           0.82534825614700  -13.17322306170375   11.22461311334238
C           0.34869385372262  -10.71392570473433   14.06528248316583
S           4.98381324005624  -14.22542443919703   11.30570643165725
C           6.27625151263236  -15.07896758095643   10.47940518682985
C           5.90915970510446  -15.45182538482312    9.20997839308022
C           7.52111242017945  -15.35322626625821   11.10303316575767
C           8.10959096772581  -14.68983949788563   12.13355833920268
C           9.17642413204030  -15.34894727856835   12.93485959877108
O           9.78475108437298  -16.35356984987345   12.64893290133012
C           9.27996196944872  -14.54436983916987   14.17112080305023
C          10.03431245386345  -14.77656111172075   15.28479338230387
C           9.95918329354630  -13.87095444997451   16.36703322843981
C           9.09460159772183  -12.74141032904419   16.27605764019583
C           9.02133472029053  -11.84536568873630   17.36150815374583
C           9.77382780327062  -12.05767064442888   18.48215933543731
C          10.63023427356498  -13.17343540615933   18.57022168106049
C          10.72167121785329  -14.06199044225490   17.53582894699869
F          11.35629162822727  -13.35671166515818   19.68159073061506
F           9.70386346774642  -11.20338046118904   19.51192035273288
C           8.33051811732303  -12.52233911484285   15.10736629567771
C           8.42769810633341  -13.40742075578778   14.06747658171466
C           7.81869406506598  -13.40755450034429   12.74147113021387
C           7.31593664741719  -12.30591137906290   12.10118330953235
C           7.06373689916333  -12.26162383294126   10.71294167619515
N           6.91503803060793  -12.15747330488745    9.57950563328226
C           7.07528321270755  -11.07035836532519   12.73342246647358
N           6.82720393772881  -10.05403684627706   13.20626224783805
H          -9.88325879301145   -1.56348706045436   -6.92665251533858
H          -5.71736357749167   -4.10822875089247   -7.78627988694517
H         -10.24663575415766   -2.80858894504245   -4.86322793280092
H          -6.06188581164183   -5.39656291826121   -5.67366445995408
H          -9.40701359311930   -5.74019170910288   -0.40509827126855
H          -6.50854222487643   -8.08084997883139   -1.66395974748991
H          -7.18799689685685  -10.45212129345132    4.80354686159801
H          -8.23401604715992   -9.88608987373542    6.94723092808806
H          -7.95785703165055   -5.73860827279506    5.99109079573278
H          -6.88858451452629   -6.29594420015445    3.85917450768651
H          -8.76338687522992   -8.23922789197881    8.62985610668186
H          -9.89802413501031   -7.22111104201321    7.74335446098834
H          -8.39915229192959   -6.52804908463589    8.35210269193079
H          -6.62794059938686  -10.52408698643064   -1.72348021189535
H          -5.76566656746662  -11.41834081398114   -3.83447056310049
H          -1.77150085719223  -10.75604485648996   -2.49193235373412
H          -2.62685413330580   -9.81721150054771   -0.39814789910869
H          -3.96473122114744  -12.08051167258047   -5.23020824706033
H          -2.48680780439965  -12.54535298468740   -4.37433373752352
H          -2.60039864223899  -10.96095346011838   -5.12998845477840
H          -4.76327218522094  -10.04416592729079    4.94221583733351
H           0.30312404868951  -12.59482194210673    8.67327406701810
H           4.34887695977598  -14.44189980555108    4.99531598139606
H           5.18660558851376  -15.84834531768372    3.17576720221747
H           5.82044867268030  -19.04481869152709    5.92904120379574
H           4.93089210353610  -17.66028993645360    7.74560096279030
H           7.05479278215593  -18.01262822376711    2.96560048273295
H           5.40723732996032  -18.35054914537907    2.45026909619375
H           6.20937822777642  -19.42397654772272    3.60828866858370
H           3.85764527444806  -11.68436070572463   11.18841698178912
H           2.83739401743999  -10.44410968632911   13.03558000247627
H          -0.76532213843234  -12.68026949609942   12.55551342940860
H           0.26485256332694  -13.95183022180303   10.72811389413163
H           0.61901799443072   -9.66127602707831   14.01481655345237
H           0.71412635605349  -11.10564997701722   15.01495181339817
H          -0.73483457943963  -10.80271445709755   14.05524373774147
H           6.57353352908977  -15.97535040366439    8.54569280590803
H           8.04337262804119  -16.23901949452126   10.75445897294018
H          10.68179267254625  -15.63843363081019   15.33955380955822
H           8.37384488805610  -10.98410154217468   17.30857000933926
H          11.38199619999673  -14.91096158305868   17.61891627878029
H           7.67996860902502  -11.66325840066682   15.06413264965818
