149
 SCF done       -272.368991340838          0.000309713396
C         -17.44595130530494   -6.26884657681504    2.22803581297501
C         -18.16133247129486   -6.09754747985311    3.37964007857372
F         -19.48639196846333   -5.90586500870799    3.32761610084416
C         -17.51857084724911   -6.12091510640968    4.63360236756569
F         -18.24559867410983   -5.95192983058047    5.74699571520693
C         -16.16844139361363   -6.31438042257059    4.71844308112265
C         -15.40351388316694   -6.49471491507282    3.54967248724038
C         -16.05208454806970   -6.47193964132561    2.28101006141526
C         -15.30576008764865   -6.65307285695633    1.09421506558013
C         -13.95276949922660   -6.85478437635193    1.17465912937890
C         -13.31625478399338   -6.88228556991056    2.44452445012763
C         -14.00793727009397   -6.70384593800191    3.60755403183516
C         -11.87171331482726   -7.13736365252192    2.27056971842569
O         -11.05223628103039   -7.15274128516855    3.16547102429726
C         -11.67751042216695   -7.35987909669044    0.81898064964651
C         -12.93769789979548   -7.07342000214927    0.14858324070788
C         -13.15024535812082   -6.95367124631173   -1.19968915170498
C         -12.17074695939067   -7.06020648829973   -2.21091765765784
N         -11.44402742344907   -7.10664234591975   -3.09896685297824
C         -14.40399968150449   -6.65221673055179   -1.77347617120252
N         -15.39422354821293   -6.41408829644954   -2.30316004399456
C         -10.58515350575607   -7.86730694650844    0.16858949897508
C          -9.29900259957775   -8.22002342915797    0.62915038921222
C          -8.66342530337104   -8.04461634573296    1.83698530205310
C          -7.35236940804305   -8.55395278806893    1.86575664164195
C          -6.98352215712623   -9.17241952102505    0.63808891279305
S          -8.25571696266818   -9.03775439873906   -0.53797933576537
C          -5.75154271044156   -9.77292847045151    0.43412743436642
C          -5.36260773596175  -10.34300695364087   -0.86166254357055
C          -4.15571442975839   -9.97727339744056   -1.45512250631844
C          -3.79326886083455  -10.49733336443373   -2.68022257217233
C          -4.61676499579262  -11.39869171592279   -3.34747031748603
C          -5.81780707759390  -11.76080242735439   -2.75286895793500
C          -6.19111519965344  -11.23948285538145   -1.52847757719694
C          -4.20311460286209  -11.95654798213992   -4.67373877756981
C          -4.87304133868465   -9.78757443707233    1.53229046013832
C          -5.23675281904676   -9.16111891590985    2.75453605965380
C          -6.44709845448697   -8.52072505183788    2.94855884713137
C          -6.78181556188805   -7.83030871249585    4.19856798646473
C          -7.25535540416950   -6.51928129535206    4.17604526132990
C          -7.56315621242840   -5.86723093990135    5.35167314591984
C          -7.41441018034968   -6.49977656942553    6.58199667607295
C          -6.94050604982586   -7.80451250349272    6.60072875336450
C          -6.62397102897028   -8.46296560435227    5.42778426813195
C          -7.76386801337449   -5.77882866268314    7.84676537330334
S          -3.95259949754851   -9.28366772839199    3.92973401194597
C          -2.97590858976978  -10.21668303809469    2.81102230843040
C          -3.59772645385305  -10.39336282175985    1.60658670028259
C          -1.69325611224521  -10.71869627726150    3.20484130881559
C          -1.10448193487513  -10.42838821021282    4.42215276480641
C           0.14129652921640  -10.92993423320030    4.81441349032787
C           0.90134423046554  -11.77898018697452    4.03061531156370
C           0.33666260060641  -12.10867155211159    2.76708966289803
C          -0.94055386702294  -11.57517069740641    2.35401155340246
N          -1.18520097694830  -12.04649095981163    1.14760936544133
O          -0.14750219149860  -12.81511733493907    0.82615456629605
N           0.77593721610453  -12.86743542219810    1.78283768395050
C           2.16932229646980  -12.30454809076388    4.44065214087244
C           2.93235573733743  -13.22761941499614    3.78076605636229
C           4.13389008642178  -13.55551508069691    4.45014505767671
C           4.28813135999829  -12.80859582899520    5.64999347647617
S           2.91231749734531  -11.77968638823848    5.94115236158378
C           5.41393024071643  -12.88450646323380    6.44475090472690
C           5.56753947746218  -12.20257706542758    7.73578053360213
C           4.64047305731322  -12.42216043253013    8.75002533929377
C           4.86080733217886  -11.91910782349714   10.01697556982071
C           6.00078274765441  -11.17842649618290   10.30634494702962
C           6.89756754625760  -10.91762424764072    9.27640961309216
C           6.68895279655894  -11.42348499685023    8.00854527107813
C           6.28094594699746  -10.71641696304609   11.70011587590959
C           6.41956219846159  -13.77264047606829    6.01418581582766
C           6.24257658302495  -14.57029957026288    4.85319967794121
C           5.11408657980607  -14.48485953068840    4.05305072472069
C           4.92819955171427  -15.34112964247136    2.87608218412512
C           3.74608132547942  -16.05843261798507    2.70216164873214
C           3.57895034971688  -16.87407474500702    1.60212541378630
C           4.57865714509716  -16.99652853754717    0.64248983786870
C           5.75647190604913  -16.28313362597392    0.82110892540888
C           5.93431963877789  -15.46907590771866    1.92342806796916
C           4.38374994581423  -17.89250627935696   -0.54098322523218
S           7.56493421904244  -15.68785663188305    4.65643597075469
C           8.32340236975474  -15.11214214857651    6.13456740898454
C           7.60707611007913  -14.08365178268153    6.69676526394430
C           9.54429422503690  -15.67418148322994    6.56628549537169
C          10.20697009295042  -15.49900982659591    7.74682276625165
C          11.65726161546375  -15.83463453153622    7.78875786831503
O          12.27254548499730  -16.49588543831855    6.98533033895035
C          12.18408972815223  -15.13536341257180    8.97905568415430
C          13.47636599470927  -15.01273826908065    9.39991998411605
C          13.75208121106989  -14.25056425068240   10.55755014260540
C          12.67805942767257  -13.62422559509096   11.25393675117586
C          12.96104576497878  -12.85677494174308   12.40157909566413
C          14.24840779021238  -12.72100666251664   12.83945612047921
C          15.30943142556429  -13.34282851016708   12.15145345070235
C          15.06784844459045  -14.09194498596962   11.03411100082048
F          16.56192438641259  -13.19152090375758   12.60299198441617
F          14.51429344902199  -11.99151830891402   13.93136139710085
C          11.34820180966155  -13.77776546851139   10.79906534329082
C          11.10404693493432  -14.52928190308410    9.68108242200372
C           9.85478221203614  -14.88910405768103    9.01124555858778
C           8.61850246701731  -14.85459775324045    9.60610673102999
C           7.47168386270060  -15.47456060414913    9.06906685191072
N           6.52250511621700  -15.99617539374783    8.68966991776737
C           8.35375606974603  -14.23889495291056   10.84461594778399
N           8.07346309485832  -13.71477104618984   11.82746816852954
H         -17.95332791741715   -6.24707818276136    1.27621897941147
H         -15.69119738692648   -6.33007126037440    5.68576848153907
H         -15.82784583027513   -6.63558859384935    0.15153905094997
H         -13.49684529792798   -6.72784995497186    4.55804229595531
H         -10.72010964367296   -8.07558422793189   -0.88690426059487
H          -9.13786228684240   -7.57921081409297    2.68093966158110
H          -3.51424865930543   -9.26196223681589   -0.96112750722771
H          -2.85721031140198  -10.19993979936600   -3.13078528073623
H          -6.47172323326795  -12.46090245216789   -3.25248182178648
H          -7.12159909272312  -11.54824701186125   -1.07540083202565
H          -3.27628377769793  -12.52042523154209   -4.57322857335414
H          -4.02526982429119  -11.15090035606049   -5.38483992876814
H          -4.96835593524588  -12.61444714486900   -5.07715699987236
H          -7.35645640838384   -6.00484499691635    3.23162242346362
H          -7.92599618786918   -4.85003552969284    5.31847090207211
H          -6.82013768586401   -8.31600064349592    7.54496292566129
H          -6.27768867796336   -9.48532500456905    5.46351094240741
H          -8.82291168720000   -5.52324066698839    7.85353005365236
H          -7.19895692667131   -4.85071308685525    7.92367597562972
H          -7.54900372381335   -6.39128463485565    8.71861848310054
H          -3.15428601508748  -10.95844785327596    0.80761500853060
H          -1.63328406165075   -9.78075985963682    5.10626288170246
H           0.52517945357891  -10.64512929913773    5.78317274872673
H           2.63984780157037  -13.64213795150832    2.83369178114606
H           3.76639114655897  -13.02382662744320    8.55029504211468
H           4.14610141925080  -12.12131778072730   10.80117268342824
H           7.77787581501132  -10.32225461970115    9.47464716455160
H           7.39346337252183  -11.20805718213293    7.21678301241875
H           6.83224570390161  -11.49702494255199   12.22673810111743
H           5.35823618539574  -10.52929825088729   12.24369677677678
H           6.88635059738169   -9.81303497207951   11.70063166893785
H           2.96843734764998  -15.99348588292663    3.44893319109667
H           2.65878355546308  -17.42795970519996    1.48333471337305
H           6.54569796104219  -16.36290299539858    0.08746986060303
H           6.85113747371188  -14.90893816507022    2.03457168370327
H           3.41113712902269  -17.71779231126278   -0.99729030195796
H           4.42193642888822  -18.93648914941795   -0.22961528466435
H           5.15734309014193  -17.72916612774364   -1.28680328756956
H           7.93514466259329  -13.53671074912857    7.56057043678095
H          10.07738580788108  -16.27412022282656    5.83489086076619
H          14.27812136543621  -15.48909970696118    8.85662819093446
H          12.16033151756332  -12.37708744309298   12.94251168356431
H          15.89080608151147  -14.56118981984273   10.51816933589076
H          10.55554928409399  -13.28739884576604   11.34134490495349
