91
 SCF done       -188.047615506063          0.000585235696
C          -1.11351171072806    2.76769809572141    0.05752292466500
C          -0.34188422088584    3.43506623521650   -0.85164472940796
F          -0.19810379171762    4.76417859562230   -0.76622404075355
C           0.31168682402340    2.73775599568230   -1.88786254277731
F           1.06305083228149    3.41842879769565   -2.76394644984477
C           0.18293165621655    1.38194432200999   -2.00143579972193
C          -0.60619499927388    0.66590867557754   -1.08040530879205
C          -1.26562743722388    1.36897521362704   -0.03070685767037
C          -2.05878713862940    0.67141995820498    0.90862741196686
C          -2.19123878083794   -0.68887943065237    0.80153371304731
C          -1.53580220553970   -1.37859379037529   -0.25357502446257
C          -0.76017581384768   -0.73460074363025   -1.17390158155992
C          -1.83446885780403   -2.82107857795217   -0.16473767939550
O          -1.39782330637441   -3.67381542576491   -0.90763378697625
C          -2.73828016665388   -2.97476557577215    1.00107866444995
C          -2.92164826215203   -1.66364021895743    1.60785823898855
C          -3.62938907064683   -1.35827798600220    2.74173948247685
C          -4.32084393160503   -2.25955644881887    3.57980347724337
N          -4.90523640351347   -2.90290607735122    4.33119224737255
C          -3.75995728231495   -0.05199605371218    3.26187109598002
N          -3.91028862949983    0.97908648045460    3.74382670592899
C          -3.34789507553158   -4.11105390493303    1.45967089594094
C          -3.34368264443673   -5.44055341051364    0.99049779957824
C          -2.65087274358311   -6.09852597580692   -0.00801457995224
C          -2.97305739082508   -7.45351641233042   -0.10835073909125
S          -2.02463811741277   -8.46668697349065   -1.17975581353907
C          -1.75673345080980   -9.95582320306375   -0.16810652413772
C          -3.97014792734761   -7.85701550412628    0.78794692935192
S          -4.37283656510649   -6.56152544009657    1.86819628982313
C          -4.70903293809886   -9.07084436784243    0.87627981943049
C          -5.34552269717737   -9.42794802344215    2.09422998312591
C          -6.12602371031847  -10.61995671814994    2.25584972940588
N          -6.66398479349992  -10.89084974143282    3.46334918874955
C          -6.48753334676889  -10.04594133444426    4.44095978029990
C          -5.74275563884600   -8.86199308168014    4.27440183200584
N          -5.18455651575535   -8.58635716174037    3.13050557435766
C          -6.35591974021098  -11.49917407995460    1.16597978287976
C          -5.78320727232651  -11.10693831156640   -0.06078197484250
C          -4.98062275122945   -9.91892486974497   -0.21562471783811
N          -4.63008212429493   -9.73298669667890   -1.49143408865265
S          -5.22391470152284  -10.91217502715647   -2.39113173563998
N          -5.95502056636779  -11.73709236952772   -1.22575347136799
C          -7.17096073503449  -12.66484594249640    1.22453031460458
C          -7.90589188920554  -13.15627215578872    2.28817922843090
C          -8.62255523562530  -14.31145176421749    1.97905356475160
S          -9.67220934049792  -15.18960449834287    3.05338786843279
C          -9.47659926127804  -14.27795251420367    4.61120086379196
C          -8.46686739381647  -14.71468307095337    0.64411697756600
S          -7.36442238896175  -13.65086284156600   -0.19036187835095
C          -9.03215857788362  -15.85719211872255    0.05798464711781
C          -9.11995020993495  -16.17764417708899   -1.26956937268775
C          -9.25899577358403  -17.59522610503343   -1.68343358853860
O          -9.54486412390178  -18.53857515398074   -0.98176718517982
C          -8.90740405853072  -17.61116092393727   -3.12161302344107
C          -8.77265239277447  -18.67861787675869   -3.96066704521750
C          -8.39715571389073  -18.45347128746372   -5.30483219921974
C          -8.16584637574230  -17.12064350942723   -5.75301204459852
C          -7.78577400017121  -16.90463854371442   -7.09272160762822
C          -7.64432100402922  -17.96108809832586   -7.94797558682598
C          -7.87467602596394  -19.27827507125017   -7.50437721669644
C          -8.24372931895756  -19.52072458782216   -6.21086065389619
F          -7.72702171955516  -20.29596712011404   -8.36465063203393
F          -7.28264570769990  -17.75241128256103   -9.22175295034462
C          -8.32291596867731  -16.03316072098443   -4.86301389185049
C          -8.69214099140049  -16.27570768656923   -3.56782672098259
C          -8.97262469964135  -15.37018153311177   -2.45666292586250
C          -9.30353000716244  -14.04379465651582   -2.58174493774226
C          -9.91144108530064  -13.30204125510510   -1.54789242519139
N         -10.46894699719167  -12.68711579092744   -0.75448538652286
C          -9.13793312608650  -13.29907897598532   -3.76344646354836
N          -8.97868436232881  -12.63611021269057   -4.68795911970350
H          -1.60599264822789    3.31685021393468    0.84489078238458
H           0.68886719226459    0.86237700664718   -2.80012762869829
H          -2.54228603876599    1.23610925148367    1.68872986355897
H          -0.27259657727532   -1.28832047234430   -1.96186407835784
H          -3.98354161413901   -3.98863869237673    2.32891271577286
H          -1.91661489674399   -5.62844173692284   -0.63606279149029
H          -2.54095729683959  -10.68746470772169   -0.33423992765810
H          -1.71323412146121   -9.67332113817575    0.87854701228273
H          -0.80189852352340  -10.36315639420325   -0.48541324553141
H          -6.93708033530151  -10.30280809663332    5.39048765977338
H          -5.59780890862736   -8.15208133923419    5.07568155842008
H          -7.90073183499994  -12.65802037866833    3.23778195338805
H         -10.08396944905242  -14.80629525662093    5.33952937800041
H          -9.84303500334527  -13.26340119363666    4.48939195708854
H          -8.43529476236915  -14.28883729855324    4.91772638898389
H          -9.37158247597064  -16.62409502906588    0.74940797055361
H          -8.95035971788795  -19.68234093935022   -3.60569934039534
H          -7.60949008802809  -15.90192287423223   -7.44960525583500
H          -8.41669095484581  -20.53509753616965   -5.88701879806539
H          -8.13937005181433  -15.03384334576447   -5.22473690356264
