97
 SCF done       -214.414369256052          0.000464749113
C           0.96514565436708   -0.90975136315729   -6.57266769830212
C           1.71918715021230   -1.35035878868733   -7.62411839306868
F           2.49659893774051   -0.49518176819854   -8.30019600344360
C           1.68982491130369   -2.70571259333217   -8.00972387692252
F           2.44014337010204   -3.11003847191757   -9.04310200898881
C           0.90563112439803   -3.60193616238513   -7.33878326481758
C           0.11781834830823   -3.17857123561765   -6.25096005104759
C           0.14729658606891   -1.80877460987188   -5.85920168958175
C          -0.63192539076836   -1.36079044932349   -4.76752639527267
C          -1.41503923644867   -2.25532275685746   -4.08684904161887
C          -1.43719443662512   -3.62094376954461   -4.48631950199750
C          -0.69887192733434   -4.08341143109296   -5.53703129791013
C          -2.34080592970995   -4.36889732298880   -3.59583208334502
O          -2.60509437690444   -5.55564098816824   -3.66738217142375
C          -2.84372815882052   -3.39956874441693   -2.61433407099447
C          -2.30250650385557   -2.09201891452041   -2.93675472344654
C          -2.57150117614639   -0.90160408397549   -2.31267732342537
C          -3.44318282520760   -0.72057619757886   -1.21809093627223
N          -4.13842584375114   -0.48804429380372   -0.33391063549198
C          -2.01131559900638    0.33537161537485   -2.69761429427936
N          -1.59190744145059    1.37210505241593   -2.95581097551031
C          -3.65368276161510   -3.69383020622172   -1.54760965174451
C          -4.22604753542973   -4.91128641415899   -1.14687467736977
C          -5.00381883549675   -5.00105287129682    0.01264640471462
C          -5.48311802474116   -6.27653816939027    0.22781341199199
C          -5.08857877467561   -7.19146929540668   -0.77181632041751
S          -4.09921118832613   -6.45819694941738   -1.97527278418634
C          -5.59560443531819   -8.46795730127449   -0.53276945782826
C          -6.36735170250952   -8.52881571779148    0.64216808226580
S          -6.47655395718755   -6.99823713159502    1.46745218816221
C          -6.89180558536413   -9.78590143454988    0.90200591696409
C          -6.53569616807017  -10.70917932823394   -0.07204015887639
S          -5.53123136137956   -9.99741940691285   -1.32551644799919
C          -6.89666712642532  -12.08184496817484   -0.16221529555164
C          -7.67478483170955  -12.77339663083256    0.79996763783156
C          -8.03981541869535  -14.15726867755498    0.61273754546104
N          -8.78209447842972  -14.78014322300013    1.53487513281039
C          -9.17442750225170  -14.14504230089203    2.60994857783876
C          -8.80389779619823  -12.77468801100671    2.80013391755308
N          -8.08250627100272  -12.14051438352349    1.90909730921056
C          -9.21498979483643  -12.07829111238889    3.96508939656793
N          -9.56032845792425  -11.53174266948569    4.91025110833693
C          -9.96121550530690  -14.82109742294162    3.57482024632792
N         -10.59842989355893  -15.33296403851801    4.37686874721079
C          -7.66071407375986  -14.91895992521422   -0.51761958655128
C          -6.85812163230702  -14.23921524192456   -1.45999840199869
C          -6.49020389889179  -12.85672706863039   -1.27249440423058
N          -5.73573573349014  -12.40950488208765   -2.27604368129117
S          -5.50726084009648  -13.58741598989913   -3.33867035541868
N          -6.35173608013103  -14.72841732022496   -2.59370590154692
C          -8.08979468347199  -16.26339045894891   -0.66752333568793
C          -7.81681217760445  -17.10690972631367   -1.73568692810488
C          -8.41685661472616  -18.34762913727297   -1.57919662603690
C          -9.15212131187870  -18.46968103504927   -0.38713535602029
S          -9.09588874201649  -17.01951770403395    0.55196158793755
C          -9.75492856237384  -19.72043784283188   -0.27249308103608
C          -9.48033160172261  -20.55266841387284   -1.37557401727693
S          -8.46744950656806  -19.78496252398072   -2.56464052790415
C         -10.06288253279729  -21.80796942629414   -1.28693830056316
C         -10.79658224062924  -21.96071685502419   -0.11820951889210
S         -10.76893836302358  -20.50523784413794    0.86812250025235
C         -11.58953698292581  -23.04126794632908    0.32052774662894
C         -11.62586482527932  -24.33829592413453   -0.09951644060897
C         -12.84532135723179  -25.14182874428897    0.20077968816618
O         -13.73094623587928  -24.84997418016027    0.96928464122332
C         -12.75789937955625  -26.32337105425154   -0.68007642099664
C         -13.67851935006652  -27.31002602839832   -0.88432840176071
C         -13.38962390176095  -28.33707161909737   -1.81069882319847
C         -12.14928335398688  -28.31708414807054   -2.51251954437591
C         -11.87154187864544  -29.33982452373206   -3.44152751636330
C         -12.78047087306572  -30.33662662808358   -3.66091536430070
C         -14.00596200028920  -30.35632951505321   -2.96485983708879
C         -14.30536526019925  -29.37808780497332   -2.05852140225731
F         -14.87839135047397  -31.34480456380371   -3.20129473580389
F         -12.51427502375937  -31.30764626642269   -4.54387291322835
C         -11.21161381649451  -27.28595170586986   -2.27355253800926
C         -11.50942307538144  -26.30637714676434   -1.36470413226857
C         -10.73918911694663  -25.15525442083853   -0.89577210390925
C          -9.37650777427856  -25.03163796698875   -0.98954562953019
C          -8.63486333759040  -24.04990554134034   -0.30335962308598
N          -7.99518471994026  -23.28246460023675    0.26155822836254
C          -8.55688232924075  -25.92089980554851   -1.71400215227474
N          -7.85169705557483  -26.60470133272015   -2.30769063940747
H           0.99927805925882    0.13104047376159   -6.29075074295408
H           0.89428148019586   -4.63589209519272   -7.64620884703330
H          -0.58390933607821   -0.31873541597100   -4.49670669289940
H          -0.73557803347991   -5.12516395876314   -5.81713202858177
H          -3.90131252205294   -2.87496672337671   -0.88299972710621
H          -5.19472454714615   -4.15684885597971    0.65020482132069
H          -7.50355426153108  -10.03468681797365    1.74766144695072
H          -7.21365730795787  -16.80600030322333   -2.57134536039693
H          -9.99895928704500  -22.55629049398860   -2.05530471431907
H         -12.34654599596408  -22.79202615691922    1.05913842941342
H         -14.61475079781176  -27.30672341471325   -0.34733118801673
H         -10.93681969952593  -29.34239904950615   -3.98019398020871
H         -15.24749102952270  -29.40688249464131   -1.53384830221543
H         -10.28421495670047  -27.29188688877805   -2.82389365629530
