148
 SCF done       -271.986932234810          0.000666966099
C         -14.85778285926411   -4.42077000703359   -4.49253632541841
C         -15.83585292223195   -3.81399227351337   -3.75591238852288
F         -16.80388019860980   -3.11652531104136   -4.36554490934210
C         -15.84015692852880   -3.91236185115625   -2.35011464540494
F         -16.81074090227564   -3.30546846898593   -1.65265664071040
C         -14.86633276164573   -4.61727777905040   -1.70023647764292
C         -13.84398379875763   -5.25299312932680   -2.43122160529821
C         -13.83851989916621   -5.15471489139792   -3.85283668518927
C         -12.82337506326834   -5.78549979550424   -4.60788670574590
C         -11.84365996198638   -6.49099444709914   -3.96008483761476
C         -11.85148962958842   -6.57516497029040   -2.54139038694508
C         -12.82007163553761   -5.98080832418098   -1.78542153140698
C         -10.68791835327808   -7.36240674909811   -2.08328651534721
O         -10.42406595280998   -7.62035919529151   -0.92792830838646
C          -9.92629902483200   -7.69559232636982   -3.30993303046752
C         -10.69164580781682   -7.23644822519846   -4.45667827583408
C         -10.44195156111798   -7.51888518648581   -5.77401418164795
C          -9.39541166386484   -8.33614579317615   -6.25280467826123
N          -8.59147211169093   -9.00776069715592   -6.72308164911641
C         -11.24166793155320   -7.05938690240079   -6.84152661524667
N         -11.84861135924065   -6.71215329928655   -7.75213127511358
C          -8.64476804697248   -8.16875055697161   -3.39216626110613
C          -7.80542407739677   -8.69237112686040   -2.38554585930750
C          -8.08631959871506   -9.20155855692690   -1.13978310017011
C          -6.94843196591808   -9.64280498124371   -0.43731172354099
C          -5.75509094794328   -9.50113660789309   -1.19917350619601
S          -6.08361521253216   -8.80045288139234   -2.75684719433971
C          -4.50348028899736   -9.85189839678461   -0.72060550354527
C          -3.28625017629563   -9.63976299189393   -1.51634389690492
C          -2.21431007534321   -8.92178483980487   -0.99168387289788
C          -1.08140166872007   -8.70289875009312   -1.74976332388457
C          -0.98151942282160   -9.19606142083717   -3.04629046097696
C          -2.05171831861629   -9.91390224023983   -3.56440036947818
C          -3.19172128729873  -10.13123904387212   -2.81449363777668
C           0.24388474887700   -8.93374861479496   -3.86578915943908
C          -4.45768658437718  -10.39627816835585    0.57461088306563
C          -5.64786113394765  -10.54287305251007    1.33327465147891
C          -6.89935236515014  -10.17447879396835    0.86719661638132
C          -8.10586170264167  -10.31476164572074    1.68881185918640
C          -8.99072677688418   -9.24987095752713    1.85225299870043
C         -10.11822095900976   -9.39486398395590    2.63401441637793
C         -10.40122276763696  -10.59869954192568    3.27132990340103
C          -9.51704858675266  -11.65662931439610    3.10662538971628
C          -8.38269897960393  -11.51927511922833    2.33031439006525
C         -11.62754456971861  -10.73520723639437    4.11945671305629
S          -5.31178896262429  -11.17469609323238    2.92080401151963
C          -3.60920017761065  -11.29837264365754    2.54608006474096
C          -3.32375539569366  -10.86253478147358    1.28438723092479
C          -2.67553277217565  -11.83935747127833    3.51122498383396
C          -1.49570340948873  -12.46445462974548    3.09935831144309
C          -0.61441693210512  -12.99348123122506    4.01550266362297
F           0.49966711949118  -13.57837891733696    3.53172364730192
C          -0.83128425109484  -12.93155945711067    5.39796826843417
C          -2.00153168863789  -12.28806511665603    5.80820889131585
C          -2.89039375820877  -11.77400663421143    4.89282001523433
F          -3.99601571794714  -11.17169605811649    5.36885508823505
C           0.07323442635629  -13.49417598026558    6.37559719745715
C           1.02973350719545  -14.45146813602411    6.21015342575962
C           1.70363850984708  -14.79652731625249    7.40891815423903
C           1.24349275031473  -14.03713408260551    8.51350277047658
S          -0.03314444906324  -12.95204336601183    8.04134670723401
C           1.77974135575329  -14.13924061505875    9.78714561593024
C           1.30952116417752  -13.30461266208202   10.89853897305917
C          -0.04432353710164  -13.22603632107048   11.20874811773484
C          -0.47941534399552  -12.42491054995088   12.24737688632857
C           0.41792562767816  -11.67503185412861   12.99588385292268
C           1.77078300160419  -11.75272857056364   12.67977093142497
C           2.21430197236351  -12.55710688343462   11.65017882250667
C          -0.04395238490585  -10.79828318601371   14.11807635210640
C           2.81312635029460  -15.07849171911536    9.95485136180888
C           3.26350877219532  -15.84821813068843    8.85107523112110
C           2.73356056029869  -15.73884386355823    7.57722579864401
C           3.19300917078250  -16.59217536495357    6.47429126333080
C           2.27883968350929  -17.33173330853964    5.72733256963698
C           2.71269483944019  -18.15274868069751    4.70653709732149
C           4.06477519571776  -18.25778252805988    4.39758795934540
C           4.97273156387274  -17.52049835405690    5.14617663160906
C           4.54695024885721  -16.70092158698818    6.17415439771526
C           4.52152142175641  -19.16377578591982    3.29672241358553
S           4.49812832897555  -16.98077387948532    9.33002727929821
C           4.37039774848649  -16.46100750337460   11.00475379625281
C           3.47296274256859  -15.43557661416605   11.15118008417637
C           5.17337271243426  -17.01644746204562   12.03545566755657
C           5.76840888360899  -18.23728277908268   12.07630495237807
C           6.91361516554594  -18.48254580137342   12.99382837353050
O           7.26890757338067  -17.78674989124953   13.91645138370998
C           7.55065048119542  -19.71789066625636   12.48922290635709
C           8.70356366923384  -20.31919113150366   12.90464744828469
C           9.13662536602611  -21.49735909608213   12.25570377375949
C           8.36681664522878  -22.02725749340951   11.17945420836520
C           8.80841091308073  -23.19963904661608   10.53362769167622
C           9.95674719826999  -23.81910546662168   10.93952270494741
C          10.71588951246624  -23.29567799239685   12.00526253779645
C          10.31584546411641  -22.15915184311715   12.65017917892207
F          11.83821935695285  -23.92406631595105   12.38189061433204
F          10.37353072064490  -24.93457573976659   10.32528809370544
C           7.17330635530221  -21.38696558575192   10.77503335768207
C           6.76784783942866  -20.25286764014940   11.42577728164407
C           5.57644343167777  -19.42473104206602   11.26925337820856
C           4.39686722600697  -19.82665008023994   10.70098455845973
C           3.18102424773332  -19.13147148922923   10.87699479440138
N           2.16515167994640  -18.63172484493904   11.06574373777578
C           4.24544900145538  -21.02402975677493    9.97425045451158
N           4.08090767007662  -21.97688395097059    9.35571099549760
H         -14.86989524876183   -4.33694181835844   -5.56802073382067
H         -14.88375521185039   -4.68279602702120   -0.62360062737225
H         -12.84366649383888   -5.68715993434422   -5.68107390423051
H         -12.80351926788951   -6.06334111901761   -0.70926086930949
H          -8.16439809590752   -8.09961394484057   -4.36183844866640
H          -9.08316693840287   -9.27413872263928   -0.74939349431175
H          -2.28402970672765   -8.51316090485480    0.00638199941023
H          -0.26087690179885   -8.13687985072125   -1.33187108524010
H          -1.99379764848103  -10.30814532829983   -4.56856332395606
H          -4.00781232558055  -10.70307361342172   -3.23080533567458
H           1.14302463720633   -9.03687587064383   -3.26155843991202
H           0.21886838727495   -7.91550849697749   -4.25510748806725
H           0.30333221579041   -9.61776283838044   -4.70853155128260
H          -8.78416947467937   -8.30126831882004    1.38075549474583
H         -10.79294196414967   -8.55952574567374    2.75139554293186
H          -9.71848095631719  -12.60244446717086    3.58872853212553
H          -7.72076816081699  -12.36216164868993    2.19617655110785
H         -12.51032533015264  -10.41504501479258    3.56832015971145
H         -11.54296465688880  -10.10583926970203    5.00518061866749
H         -11.76827067995454  -11.76409205742388    4.44054808585458
H          -2.33256993257692  -10.85197218021328    0.86886831541791
H          -1.26806767299925  -12.55863140639785    2.04986982252086
H          -2.22751272230661  -12.19786451875556    6.85933956927239
H           1.26090644931973  -14.90971792555668    5.26682606057810
H          -0.75561352263172  -13.81515081401763   10.64932432221270
H          -1.53379351683732  -12.38325511022980   12.47927178798722
H           2.48255104147655  -11.17134712683660   13.24846446577626
H           3.26593729589162  -12.58922378288452   11.40330211944897
H          -1.12489518438217  -10.83615802871453   14.22399517867792
H           0.25293755677557   -9.76570050677034   13.93845252650478
H           0.40925151558102  -11.11432682996479   15.05701089658220
H           1.22723933123248  -17.27973588324945    5.96936770124684
H           1.99251675817119  -18.72519034959135    4.13971239398041
H           6.02770284320022  -17.58602800968767    4.92164516677219
H           5.26732136898710  -16.12235445749266    6.73407446305305
H           3.87159715454973  -19.07270662565034    2.42868861868789
H           4.48737403937786  -20.20091871342302    3.63121653255488
H           5.54183821455540  -18.93447269550261    2.99990084451589
H           3.24699137479331  -14.99580039674186   12.10625989365239
H           5.39921712347744  -16.35564137001186   12.86696280376191
H           9.27719536458868  -19.90338984359001   13.71899547812722
H           8.23673821455952  -23.61551716432199    9.71875435776160
H          10.90807845839841  -21.77133698527986   13.46415984663462
H           6.61036496613271  -21.80360084336042    9.95486790714047
