97
 SCF done       -211.899313841510          0.000774133184
C           7.24887679754050   -5.55182899550192   -6.00852591780805
C           8.16622345537827   -6.48191537084994   -6.41025963963632
F           9.28100515222864   -6.09771744206061   -7.04520912306084
C           7.95339498623838   -7.85295248631094   -6.16223733340235
F           8.86904597407320   -8.74245180484442   -6.56847448746349
C           6.82678283745452   -8.27482662119775   -5.51323025350437
C           5.86460887316276   -7.34040561722276   -5.08376121005923
C           6.07671229934436   -5.95426090950001   -5.33751985894118
C           5.12441467976829   -4.99719437190771   -4.91737126332745
C           3.99907739917699   -5.41264021490405   -4.25593461571350
C           3.80213534117635   -6.79828350462917   -3.99713421986318
C           4.69741845116735   -7.74680847673010   -4.39924565926589
C           2.54667905773328   -6.97418614829491   -3.24645433926306
O           2.06423015466758   -8.02963215275483   -2.87877790044012
C           2.00954764076161   -5.62501451240050   -3.02763535051391
C           2.87016469852421   -4.66942814486820   -3.69979935502439
C           2.67694504743373   -3.31801928193679   -3.82278130098792
C           1.57452174450958   -2.59442209231292   -3.32148123057541
N           0.70967267757233   -1.93504475678077   -2.95141968056052
C           3.56566243526837   -2.45216750408160   -4.49528375557593
N           4.24841799863256   -1.69533280726985   -5.02284305736793
C           0.92457358679389   -5.31862477617717   -2.24841974252541
C           0.08304958368869   -6.15036234649720   -1.49223978776386
C          -0.89083550903149   -5.61150975339262   -0.64595555385668
C          -1.56164654894651   -6.58352427541116    0.06659273439262
C          -1.13783447232607   -7.89263262034474   -0.24226494327406
S           0.12412032435068   -7.90796166034920   -1.41398149251370
C          -1.80161232985113   -8.84742842464364    0.53208692456664
C          -2.70670285512483   -8.26353568772699    1.43836078697035
S          -2.78457417236912   -6.52943580715404    1.30958771884818
C          -3.32476685774939   -9.18019253454393    2.27692352290204
C          -2.91063217712220  -10.47475469371617    2.00312705758220
S          -1.76016409669071  -10.56688795070243    0.68439451733965
C          -3.27161847809819  -11.64941523571199    2.68847740963099
C          -2.94124674445722  -12.95748877677468    2.31824273331639
C          -3.39674488863316  -13.94876119071962    3.25569808149348
N          -3.15936114737556  -15.24570745908510    3.04354590910412
C          -2.50107526892117  -15.56204489477978    1.94984660548409
C          -2.25002671430756  -17.00802239659996    1.72034464896583
O          -2.61012277140623  -17.86348404336953    2.50101340368130
C          -1.53168673041075  -17.32614268328745    0.47462440524055
C          -1.10940204135648  -16.40166940724510   -0.39386055467828
C          -1.30975009808852  -14.95252111158812   -0.21143224462768
O          -0.90100634895111  -14.13642451657653   -1.00896354823132
C          -2.04812402014075  -14.57239933147942    1.01923810929123
N          -2.27158914982597  -13.29141027543639    1.21546798362906
C          -4.05602774621287  -13.38832104586084    4.35760172473957
S          -4.14185075830479  -11.66113561955604    4.18756817225607
C          -4.52700933795237  -14.05902223313070    5.50410691951333
C          -4.53668279591614  -15.42754500991667    5.71775489500132
C          -4.98871028740277  -15.74007931518133    6.99605817493985
C          -5.32227743952780  -14.61520078118399    7.77165791519294
S          -5.10165485184416  -13.14965434967194    6.89472346761163
C          -5.71479820037591  -14.95884647855304    9.06237212408662
C          -5.69134190985582  -16.34806248288949    9.27580819706664
S          -5.19057433409972  -17.23539464594218    7.86253252060499
C          -6.02021215413323  -16.71240318119300   10.57610580764421
C          -6.32477961334036  -15.61840354098745   11.37005756532642
S          -6.17098045075981  -14.10531800883237   10.48189912394732
C          -6.56955324461156  -15.65624368773204   12.76168873348353
C          -7.00791133301366  -14.66411574867601   13.58428326356923
C          -6.67272055695385  -14.70766582670906   15.03505270434650
O          -6.28860732800862  -15.66490866810304   15.66416066696699
C          -6.83748744618491  -13.31458298922798   15.50331810138417
C          -6.51061699259265  -12.77024716113421   16.71175921061232
C          -6.71449788936952  -11.38722002779463   16.91975297996751
C          -7.25643765751246  -10.59197743793021   15.86806851206772
C          -7.44395178752457   -9.21128529872572   16.07938917332483
C          -7.11148348647071   -8.64639823826017   17.27850742500119
C          -6.57795808748407   -9.43376229722190   18.31872614889997
C          -6.38408798080858  -10.77547427992378   18.14481575650694
F          -6.25895592700500   -8.85291406283890   19.48298472610696
F          -7.28840854332630   -7.33372801411659   17.47647722973998
C          -7.59889215810405  -11.18550409783276   14.63150357721055
C          -7.39401087451395  -12.52693051504446   14.45474721851633
C          -7.65947619577071  -13.40023612744149   13.31604139517212
C          -8.58247444734604  -13.16835919969961   12.33113284282364
C          -8.99840247216435  -14.16911308466005   11.42769942856970
N          -9.38393304422533  -14.98076735682361   10.71386093520088
C          -9.27432215417395  -11.95014089860625   12.18130960087960
N          -9.84649967385806  -10.96875335639287   12.01792391653515
H           7.42665595296578   -4.50635356507505   -6.20696591685225
H           6.67898404890261   -9.32761526684925   -5.33017372224197
H           5.31634873761154   -3.95707153459749   -5.12446520105895
H           4.52045980110651   -8.79119987668853   -4.19189716087424
H           0.67875758798739   -4.26845742312154   -2.14597127449705
H          -1.06680009095807   -4.55458718672790   -0.55985095785715
H          -4.03316438041434   -8.93736399425295    3.04767031039119
H          -1.36032233554345  -18.38023413526965    0.30248127087716
H          -0.58221401336324  -16.67816502980479   -1.29705665445515
H          -4.21127247791626  -16.13084127728382    4.97330128053467
H          -6.05200465702000  -17.72367272423230   10.93765888332266
H          -6.25699028123119  -16.56843218895372   13.26108605606810
H          -6.09682430429313  -13.38388259863319   17.49738607672165
H          -7.85448974817080   -8.59514201039593   15.29472442349489
H          -5.97440184319152  -11.36375284650400   18.95092999742707
H          -7.99993061491497  -10.56331820736144   13.84704730185883
