107
 SCF done       -214.799613143109          0.000295415098
C          -9.30023541211863   -7.64496763893895  -10.84990597054244
C          -8.50450946192655   -7.94618563321902  -11.91912131986061
F          -9.00136370355625   -7.90187592274138  -13.16254968603818
C          -7.15504392308103   -8.30610446434933  -11.72990429272177
F          -6.39802661906551   -8.59715263876516  -12.79686037306736
C          -6.61966033137444   -8.35899982843245  -10.47357551433388
C          -7.41392149917038   -8.05411997668111   -9.35114167715549
C          -8.77846031703203   -7.68988028022587   -9.54112675589945
C          -9.59453984246917   -7.37938424334805   -8.42994754125776
C          -9.06135382260270   -7.42700650024373   -7.16811360395294
C          -7.69919031312357   -7.79398790598664   -6.98735037383044
C          -6.88858680480219   -8.10456348080429   -8.04072058185011
C          -7.37038380326894   -7.78928362514566   -5.54622401115127
O          -6.31946285176487   -8.12826072559791   -5.05130158745364
C          -8.62628240451233   -7.39363999256369   -4.85535359525726
C          -9.64888789833445   -7.15892815552459   -5.85969924558931
C         -10.91974684523822   -6.69746835375233   -5.63869464271417
C         -11.46494578245114   -6.37931973382352   -4.37653557637053
N         -11.98178668574444   -6.08935944494067   -3.39284153246204
C         -11.86297214536976   -6.45725167924722   -6.66021198607393
N         -12.67489409791707   -6.24698829699364   -7.44403153451979
C          -8.81963070946135   -7.42805496928268   -3.51047941340092
C          -7.81182039245512   -7.53528894866329   -2.49283902100318
C          -6.57740194434267   -6.84600660270068   -2.56523682430451
O          -6.42848873136894   -5.96066138724973   -3.57205442617957
C          -5.19603555708454   -5.29495693016161   -3.71618162707458
C          -5.64194585643855   -7.05985971158756   -1.56565328367420
C          -5.89474528157860   -7.90735397814067   -0.48675657026012
C          -7.17982586580282   -8.48739901513864   -0.34212637872814
C          -8.10340307842933   -8.29195169451871   -1.35225605449492
O          -7.43520418880174   -9.12979956941109    0.81528633411796
C          -8.60645175692679   -9.90696049357147    0.92196846084651
C          -4.85988741292727   -8.15487498641161    0.48120910642165
C          -4.60603941992774   -9.31936487545675    1.20627774833443
C          -3.49077471805272   -9.17976483724215    2.11292201536999
N          -3.12939484015561  -10.19466195990268    2.90271593372395
C          -3.79953799046892  -11.31996950622377    2.79883556993242
C          -3.37811598061987  -12.42688873262487    3.68786970891708
O          -2.50343043146973  -12.29940052195263    4.52221095225960
C          -4.08963305599010  -13.69840391793298    3.47375196364350
C          -5.07939194761590  -13.84939607993991    2.58756194240289
C          -5.58909247788173  -12.76163221698059    1.73041317827089
O          -6.55208239080460  -12.91007183789448    1.00756785228133
C          -4.86019488980835  -11.47524584726782    1.85172011576173
N          -5.23968032332667  -10.48960231487347    1.07485503452811
C          -2.88140385266086   -7.91914764995560    2.05496310059723
S          -3.69504959928442   -6.94240039230133    0.88607348084783
C          -1.78417732818637   -7.44053168838310    2.83451018117308
C          -1.29707659249414   -6.11802649215008    2.67336141031112
O          -1.91321144133397   -5.37573218173483    1.71880635945787
C          -1.47053895390517   -4.06047505389837    1.47454294225790
C          -0.27215475012336   -5.67563678300304    3.47860440915689
C           0.34983110281355   -6.50525265909582    4.42591599564623
C          -0.14077189116125   -7.82790610203839    4.58371013815759
C          -1.19158129693257   -8.26161530024930    3.79524843338454
O           0.42206816928936   -8.58913052117189    5.54508748545242
C          -0.08479263800956   -9.89083212861760    5.77438580285242
C           1.37361443373475   -5.92024246203390    5.23438678462948
C           2.39457542222982   -6.44580184394299    5.96370677207552
C           3.01845758395535   -5.58443033083741    7.00977400773140
O           2.86673924753638   -4.39260872426706    7.15003204204591
C           3.80955537309029   -6.50317741342551    7.85215015422856
C           4.47234889927725   -6.24449916735071    9.01678136363947
C           5.14027947022327   -7.30119277287950    9.67567650860640
C           5.10613979561892   -8.60924922876149    9.11098348033868
C           5.76706611683009   -9.65994482383612    9.77846073639853
C           6.43152766844836   -9.42309902782731   10.94900423565106
C           6.46565820610480   -8.12897078402719   11.50539284476466
C           5.83427363890491   -7.08904281208701   10.88272116782136
F           7.12386583258088   -7.92582385791747   12.65526203300719
F           7.05877731096044  -10.42399468407190   11.58158278428474
C           4.41961288838494   -8.84405243689547    7.89716363063549
C           3.78294002546831   -7.80433469656648    7.27417586329961
C           3.02394702493003   -7.74354748976844    6.02775563385728
C           3.07457420797771   -8.66930778612601    5.01904121192340
C           2.52270608989979   -8.44540204671311    3.74294786468432
N           2.10216833100779   -8.28030068838342    2.68776993057845
C           3.73855260569372   -9.90780778241452    5.12017198012797
N           4.24682610452014  -10.93622607407447    5.16409598142241
H         -10.33098731736589   -7.37072770940562  -11.01189919891129
H          -5.58526992515136   -8.63730295548467  -10.34583924596606
H         -10.62474570342425   -7.11577968056006   -8.60626952767738
H          -5.85903704536320   -8.38410844681570   -7.87599785758782
H          -9.83851108639475   -7.42481938523177   -3.14170311146704
H          -4.97413162847202   -4.66844179160397   -2.84633452527118
H          -5.30629932037877   -4.66387741554162   -4.59664675993021
H          -4.38145077414123   -6.00552525745268   -3.88006641146023
H          -4.66815449619522   -6.59922632054567   -1.61916076068536
H          -9.07524630792818   -8.75588219415393   -1.29569186827904
H          -9.50805906737435   -9.28685758457811    0.88901814545424
H          -8.54162066348202  -10.39774857475896    1.89115371115721
H          -8.64466119907175  -10.66992868270503    0.14089866376629
H          -3.75968568312212  -14.52039610431181    4.09479890109713
H          -5.58256123021320  -14.79935233732164    2.46551923616945
H          -2.09292186100387   -3.68874888367192    0.66251907850669
H          -0.42152449806182   -4.04619639575506    1.16590746997040
H          -1.60506071827195   -3.42471838791963    2.35434763799093
H           0.10706068611138   -4.67141019810853    3.37505255079680
H          -1.58021664597018   -9.25995515291664    3.89946460207313
H           0.51255498191125  -10.29460394098076    6.59037794056010
H           0.02576294395945  -10.52697577014753    4.89324170760280
H          -1.13610763763184   -9.86715323724304    6.06862393758188
H           1.29079432552316   -4.84073640435654    5.34377933888052
H           4.48486061194520   -5.24846640118970    9.43259005416732
H           5.75361288292417  -10.65636087990105    9.36515088391007
H           5.86918152257128   -6.10414016491144   11.32146160652346
H           4.40571145538891   -9.84454638017380    7.49495613604973
