84
 SCF done       -175.872061278541          0.000294788787
C          -0.40944283985544   -2.54752214513329   -7.93786318627359
C          -0.13290723651890   -3.19621575076762   -9.10875499917342
F           0.46339512250962   -2.54458538545373  -10.11441778251244
C          -0.47076943715963   -4.55493411004747   -9.27362901987339
F          -0.18758288650223   -5.16450378447575  -10.43146478440940
C          -1.08172958405731   -5.24607710702317   -8.26488191627572
C          -1.38096262797047   -4.60496788538308   -7.04713674560559
C          -1.03876854935966   -3.23169045359133   -6.87852100495650
C          -1.32968424175478   -2.56632315534222   -5.66541025116868
C          -1.94755935439133   -3.25144695278578   -4.65224516102478
C          -2.28877938914869   -4.62149858947362   -4.83265754789448
C          -2.01695694085284   -5.29270346123640   -5.99006101514370
C          -2.95144504643172   -5.11757218706647   -3.61600118497513
O          -3.36091536414778   -6.24790865088901   -3.42397526745475
C          -3.01773623719659   -3.97737428538785   -2.68996071372495
C          -2.37277577439598   -2.83566983476656   -3.31738626451379
C          -2.17750386646595   -1.59174915211077   -2.77866156751723
C          -2.57102588866010   -1.17898440591105   -1.48756708604666
N          -2.85750954801038   -0.76357112929879   -0.45611267935720
C          -1.53533326763946   -0.53106008159595   -3.45411197751905
N          -1.02364592275341    0.37019467307755   -3.94681153389666
C          -3.61725949340409   -3.99295089457361   -1.46043104748999
C          -4.28816335321993   -5.03647556664578   -0.79405193625443
C          -4.90808714349114   -4.84328003978428    0.43674515195799
C          -5.56388670448490   -5.96277287854016    0.93444789409304
S          -6.40138321802738   -5.89084839643604    2.48118757299630
C          -8.09230607609862   -6.36904423865550    2.01811113289779
C          -5.40595584066987   -7.07134594136827    0.09550870500388
S          -4.51191617446811   -6.67723637706152   -1.33900257078858
C          -5.81066544311493   -8.40738396751633    0.31131323681663
N          -6.54687248579886   -8.82131541113194    1.30559640053616
C          -6.72303904910884  -10.13758143888739    1.25502063285926
C          -6.10301594429427  -10.81517189960961    0.18667271478731
S          -5.25890172728537   -9.69344764735660   -0.80017560851473
N          -6.28953685579313  -12.13184448537983    0.13852165129635
C          -7.04176684961157  -12.53230535953563    1.11983765238217
S          -7.59054792597398  -11.25038148000265    2.23190652665121
C          -7.42968711421839  -13.87753296944834    1.32683709233416
C          -8.30992205305294  -14.37456999686619    2.26060808527554
C          -8.48525360547402  -15.75881972896094    2.15992115232470
S          -9.62923715210644  -16.61382371098371    3.17019972134621
C         -10.45644401179628  -17.72253014733763    1.97977958225845
C          -7.71007709107850  -16.34489166515400    1.16002474114513
S          -6.80783849230586  -15.12144221660840    0.29263926551578
C          -7.49707776154007  -17.72721200381179    0.96942333951424
C          -6.95038769420813  -18.36196180490692   -0.10476553929040
C          -6.31487856252363  -19.69638630094630    0.05184662328736
O          -6.43128892407672  -20.45175974398236    0.98869404604431
C          -5.47818777940252  -19.86197618082945   -1.15642527932313
C          -4.58653453893082  -20.85127381257934   -1.45428786184712
C          -3.86822121663183  -20.78554118138003   -2.66980890814273
C          -4.08869018204981  -19.69154892527598   -3.55681074065809
C          -3.36241665663306  -19.63056977378290   -4.76297309805213
C          -2.46187425695792  -20.60999708235551   -5.07543543052098
C          -2.24581745444134  -21.69197267634513   -4.19853038530410
C          -2.93396647372010  -21.77929488925642   -3.02081602218030
F          -1.35610402734964  -22.63710156482696   -4.52977279901422
F          -1.77307576941327  -20.55014750790632   -6.22240919664766
C          -5.02693495462361  -18.68640621620458   -3.22748397144295
C          -5.71231702086746  -18.77333895414695   -2.04610321227122
C          -6.74411887109664  -17.92151259756372   -1.46571206961472
C          -7.56528024393382  -17.06462586021130   -2.15313864965406
C          -8.74179332885357  -16.55367137580744   -1.57128165960332
N          -9.73302570401695  -16.20169462161677   -1.11001571090501
C          -7.38545291417381  -16.71869429007855   -3.50599684372219
N          -7.26231187985395  -16.40559832126213   -4.60320650898107
H          -0.14379267747790   -1.50763284115582   -7.82850773426837
H          -1.33445624912390   -6.28515756250327   -8.40669276339948
H          -1.05768426926488   -1.52763446961622   -5.57240495316070
H          -2.28688803369786   -6.33220315914221   -6.09754219370472
H          -3.60527990874661   -3.07136914750413   -0.89115790527485
H          -4.89545658224037   -3.90039958916887    0.95450139811759
H          -8.69425013222546   -6.20787567504122    2.90613814344274
H          -8.10830157571163   -7.41528705662336    1.73188701797823
H          -8.43308887149578   -5.72867659539015    1.21088244623514
H          -8.82370945058292  -13.76256870618843    2.97960179637207
H         -11.50039803801518  -17.75189333890965    2.27707690258693
H         -10.03342104545881  -18.72045174138498    2.02568998780762
H         -10.36308650931078  -17.30125981330514    0.98378634105278
H          -7.67888198020199  -18.35078584567604    1.84013206484700
H          -4.42889607898724  -21.67288272387478   -0.77229076324443
H          -3.51789898727327  -18.81085408756920   -5.44683692052079
H          -2.75675643633491  -22.61362023662640   -2.36033983250686
H          -5.17385427014883  -17.86438143343503   -3.91025921489672
