111
 SCF done       -217.177850286555          0.000342556956
C           2.11791217558326   -7.04920223770862   -9.11187223987753
C           2.31067268847010   -8.01578291041564  -10.05887685011286
F           3.22569476892399   -7.84136214788672  -11.02297005314093
C           1.55435214977594   -9.20381715766351  -10.03494694700859
F           1.76522464475616  -10.13618096517270  -10.97550778450490
C           0.61398426672449   -9.40883539142083   -9.06437555600373
C           0.39223031119179   -8.43180815523639   -8.07506299827025
C           1.15729828457212   -7.23042800583584   -8.09702168735250
C           0.95460016793752   -6.23572337266708   -7.11179764646079
C           0.01633324539181   -6.43713043294458   -6.13493198219579
C          -0.74329144057407   -7.63955458527216   -6.12337595814355
C          -0.57232697914104   -8.61720394538729   -7.05909629853496
C          -1.67429077605721   -7.60937991697233   -4.97935483228598
O          -2.47391875526888   -8.48069890440135   -4.68398323891187
C          -1.43091390870621   -6.34087556690452   -4.28879106193456
C          -0.40691604673418   -5.61136920474585   -5.00390914387130
C           0.09148566032068   -4.36452399025725   -4.71435962335495
C          -0.31039974047532   -3.53982546837393   -3.64448560544763
N          -0.57891619621418   -2.80190362433876   -2.80509811553459
C           1.09174857219048   -3.71957116969714   -5.47016265324987
N           1.90364498581971   -3.13803923347999   -6.03740299398440
C          -2.05403154772740   -5.92310158937179   -3.13329204198711
C          -3.05598054704517   -6.52623122059952   -2.37036813849231
C          -3.55594456051462   -5.93408316401982   -1.19677366432549
C          -4.55359665776353   -6.65051028137485   -0.57584115040863
C          -4.83589332236161   -7.83561823990463   -1.30050060081285
S          -3.87207203306071   -8.04356105884747   -2.69957389095441
C          -5.85542556622408   -8.64212365170350   -0.76000358028151
C          -6.45132962501770   -8.16511607657793    0.42571409193979
Si         -5.66641658255167   -6.53981180868214    0.92993605685159
C          -4.72991673397232   -6.63726521254980    2.54835674840373
C          -6.84989366200692   -5.09065697861856    0.86244723416971
C          -7.44388525916060   -9.02802209177595    0.86220795476409
C          -7.62318073841568  -10.14176525961776    0.04421554889010
S          -6.52612679214602  -10.12938699640191   -1.31154884893207
C          -8.55989867402193  -11.19250763925887    0.20873265557283
C          -8.63751970912460  -12.24869106218128   -0.73287470724043
C          -9.58395958805651  -13.31357808890482   -0.61602371369220
N          -9.61068039641895  -14.28090479076253   -1.54811049094124
C          -8.77237272226531  -14.23297126776245   -2.54613937332794
C          -7.83794774635052  -13.18538689477416   -2.65955308084565
N          -7.78566150492406  -12.23177331403900   -1.77143342742336
C         -10.51000709156661  -13.39550402627069    0.45296057799036
C         -10.43032190710214  -12.35359482409761    1.40532412915646
C          -9.47472175348184  -11.27130039430459    1.28427800105788
N          -9.58649663523752  -10.40578490979323    2.29324167574132
S         -10.75351752177024  -10.88901626357931    3.28254026636362
N         -11.18666609153690  -12.21868734168947    2.49586746802505
C         -11.44249075953187  -14.46031756498279    0.52292526479712
C         -12.40623822674379  -14.68443818971699    1.50338627917024
C         -13.17843166797558  -15.81461546993548    1.28461898027716
C         -12.78782563152748  -16.46517876190390    0.09717342815765
S         -11.48524898059444  -15.68585534560243   -0.71698382086883
C         -13.52247838375397  -17.62073039896381   -0.22452401027297
C         -14.53343213301367  -17.99044925570516    0.68454488285286
Si        -14.60249134715477  -16.73778181809436    2.08031493311990
C         -14.16275545446799  -17.47803982571214    3.74354803205136
C         -16.20109181834015  -15.76631129583557    2.10125460856580
C         -15.17394636004317  -19.14725209513145    0.27380548572824
C         -14.71895806020902  -19.65357607240061   -0.94223925764909
S         -13.40152204770417  -18.67749711443684   -1.56733225089295
C         -15.15776468916479  -20.83546041351282   -1.56386262628977
C         -14.94259692416561  -21.26426517086173   -2.84535239434968
C         -14.99992012823019  -22.71174610067344   -3.16062822122504
O         -15.44582650930641  -23.59536561774086   -2.46310305303488
C         -14.33569333565850  -22.84522016925748   -4.47689643475475
C         -14.00660224501439  -23.97727076246736   -5.16364999962854
C         -13.33174455796108  -23.85894958374700   -6.40036668115951
C         -13.01033709912604  -22.56441835277018   -6.90169502269073
C         -12.32974123659999  -22.45494752704561   -8.13064891346105
C         -11.98559842847060  -23.57730815446681   -8.83026566820838
C         -12.30449656240336  -24.85661580793325   -8.33442665696934
C         -12.96417888525244  -24.99604966705618   -7.14551801925131
F         -11.95271336819339  -25.94119300023674   -9.04055062847752
F         -11.33748334097629  -23.47023100905834   -9.99905794255093
C         -13.37404952463244  -21.40846363491301   -6.17281627384422
C         -14.02978160423649  -21.54870038875842   -4.98038525303473
C         -14.54467797646961  -20.55797735214534   -4.03849989873565
C         -14.85612293369616  -19.25796086268609   -4.35115087566710
C         -15.63307388603640  -18.43198666954831   -3.51426943131473
N         -16.30945642553417  -17.75557389837924   -2.87889056847371
C         -14.52397083358369  -18.64597743710811   -5.57430099238986
N         -14.25903924640866  -18.10062889863298   -6.54953771443751
H           2.70571827145081   -6.14516452670229   -9.14479808335423
H           0.04260762114874  -10.32384123902353   -9.05974881670259
H           1.55193212989048   -5.33985880080051   -7.15763192736929
H          -1.16361270021983   -9.51957110664770   -7.02447216126178
H          -1.72933562485595   -4.97257310973529   -2.72743728903053
H          -3.17160352162986   -4.99458769417012   -0.83874789029080
H          -4.03891210922050   -7.47776172264363    2.57494182142852
H          -5.40377583571549   -6.75135627123299    3.39507186616317
H          -4.14513448910074   -5.73754083541171    2.72882589341360
H          -7.38664470414627   -5.04109840232392   -0.08311669213164
H          -6.33059346044839   -4.14221501253658    0.98436092443854
H          -7.59737699830350   -5.14554109298410    1.65127113102351
H          -8.04006664101148   -8.87924852159945    1.74349348272663
H          -8.83118079085562  -15.03083719262453   -3.27238076920462
H          -7.13358979750757  -13.13040027851790   -3.47700583564098
H         -12.51662498238584  -14.02043594930057    2.34072958463233
H         -13.23412438417626  -18.04499688311464    3.71155379853063
H         -14.93736212495542  -18.15385658983888    4.10031458024208
H         -14.04066091395609  -16.70887712483334    4.50327847751357
H         -16.46395007435157  -15.39164101431813    1.11367959975059
H         -16.14091588111854  -14.90637139655464    2.76544468065787
H         -17.03645702859467  -16.37370628891870    2.44392172338181
H         -15.97923043074139  -19.61537204191536    0.81193856105300
H         -15.65816119108284  -21.54908374994954   -0.91589623732266
H         -14.25466623646570  -24.95114797117713   -4.76984655246688
H         -12.08138803386244  -21.48237545684459   -8.52593970916277
H         -13.20082202131598  -25.98293310501985   -6.77972890758441
H         -13.11464054252564  -20.43966209963934   -6.56936696792521
