101
 SCF done       -217.964804176413          0.000482924299
C           2.31440898560383   -1.49871045448146    3.34291615280145
C           2.39212715993327   -0.15228886381437    3.12256455885853
F           3.40792363127462    0.55611164938001    3.63268336147022
C           1.40855571607805    0.50822202114263    2.35860429147154
F           1.50957191646418    1.82944839932304    2.16067517693029
C           0.36131652829104   -0.18803638059271    1.82371274666635
C           0.25439227040007   -1.57697594963214    2.03159617189433
C           1.24695009277873   -2.24617263859701    2.80516924747991
C           1.16120272578780   -3.63966233774785    3.02632175411531
C           0.11576993670968   -4.34392044220582    2.48770372419942
C          -0.86983557198161   -3.66653907003479    1.72067292664898
C          -0.81561567476377   -2.32210196675771    1.48996015148413
C          -1.88758156151555   -4.62856997466716    1.25639902355060
O          -2.83750571995198   -4.35619655409058    0.55295837369661
C          -1.50206614160364   -5.93580968482178    1.84194805649783
C          -0.22934686623768   -5.76171209858092    2.53022713144868
C           0.56289040200480   -6.74291016454206    3.06490066601561
C           0.31047250070336   -8.13209641178412    3.03489966157967
N           0.20591015209164   -9.27568505365993    3.03970208669740
C           1.79787659540766   -6.49584940142996    3.70313210406508
N           2.80499556859900   -6.36532082549489    4.23795614947150
C          -2.21613257195156   -7.10178779404276    1.86703856159394
C          -3.42036236248319   -7.47689506735105    1.22898565466186
C          -4.19231142368250   -6.86454786180408    0.26878495530941
C          -5.29995262311988   -7.63065255991828   -0.13860344669164
C          -5.37739344091064   -8.88193228602317    0.54214167307419
S          -4.06634012992574   -9.06291227778226    1.66592455515886
C          -6.37612944679099   -9.79447515770042    0.29058216111578
C          -7.33093204729800   -9.46785604182252   -0.67671934392673
C          -7.25425726218316   -8.21839160607335   -1.35748331493226
C          -6.26289165398873   -7.30353042641895   -1.10022522537016
S          -8.53785082987319   -8.05279994554499   -2.52443634375326
C          -9.16145970077781   -9.64095888106870   -2.11117569583206
C          -8.41952763301978  -10.24374240560679   -1.12360879749224
C         -10.29644511415322  -10.14953418021706   -2.81831755503204
C         -10.89829952718898  -11.40859493349716   -2.58498887627781
C         -11.99899590657931  -11.89860282312017   -3.37802987890642
N         -12.51918407401730  -13.11246747155894   -3.09184774470317
C         -12.03259959893701  -13.81478511063975   -2.12466871111147
C         -10.94972502768351  -13.33380331835609   -1.34611934514253
N         -10.42201639305783  -12.18013924852714   -1.58284835651570
F         -10.44395400656882  -14.05016229428269   -0.34467155972902
F         -12.58670962374067  -15.00091973488914   -1.88355877253827
C         -12.55411104756253  -11.15560797389497   -4.44691561833017
C         -11.98344450225162   -9.88163078839914   -4.64336497170902
C         -10.88572270448745   -9.39224182087996   -3.85106039197200
N         -10.51501134448113   -8.16790323817886   -4.23164214213382
S         -11.44100209099826   -7.68390964879310   -5.44517317913455
N         -12.35966011338426   -8.99037034186598   -5.56274018015397
C         -13.59724790715269  -11.61765494349186   -5.30966488754301
C         -14.23799254094063  -12.83324535091139   -5.31217935446887
C         -15.19637487719153  -12.96843473442522   -6.33695056953685
C         -15.28371211536475  -11.79652725562568   -7.14143030877369
S         -14.17527369912742  -10.56919099379560   -6.59464726511364
C         -16.14064960707265  -11.70461425535289   -8.21191203375573
C         -16.93814204475548  -12.81343658540591   -8.51052818533551
C         -16.85619597743310  -13.98169476657706   -7.69941761968213
C         -16.00266265978811  -14.07298324775750   -6.62482170338474
S         -17.94124053107003  -15.21646402233583   -8.26313779671021
C         -18.45313217733006  -14.20629329992781   -9.60394695069825
C         -17.84506962462609  -12.97447725692582   -9.57681049249944
C         -19.43966481001574  -14.70549643301437  -10.49097727165179
C         -19.75111096450022  -14.30676442944261  -11.75342789628785
C         -21.07684807300109  -14.69269184106372  -12.31760586725616
O         -21.84065127551461  -15.51419991123855  -11.86909900427991
C         -21.26758792373353  -13.81954680428880  -13.49288629627981
C         -22.36547638698519  -13.68722552400141  -14.29325599551638
C         -22.33278576387510  -12.75599172783915  -15.35525136104710
C         -21.15950201241707  -11.97394202788268  -15.56346443928631
C         -21.13610458682276  -11.04102062801652  -16.61970031881887
C         -22.22483123293603  -10.89331057739723  -17.43229163400407
C         -23.38416025182354  -11.66829672719586  -17.22638814626811
C         -23.43826101201758  -12.58078988468345  -16.21033808737403
F         -24.43676694696688  -11.50093466150195  -18.03748410228982
F         -22.20062377506579  -10.00655700985154  -18.43536556592626
C         -20.03512281561250  -12.13843154382536  -14.72266852727055
C         -20.08592451309176  -13.05393758385467  -13.70555199236623
C         -19.08512482787528  -13.45914265121472  -12.72026699884234
C         -17.73493070248509  -13.26761232113305  -12.85118058814596
C         -16.76668905600908  -13.88527426677534  -12.03369970597648
N         -15.93578226181582  -14.38884714622871  -11.42308941412299
C         -17.14847361071515  -12.49026491824339  -13.87136041987062
N         -16.62294803453863  -11.85109185350061  -14.66659723614770
H           3.07639808549294   -1.98836278105286    3.92908481367745
H          -0.38344480392686    0.33126283398217    1.24108062298402
H           1.92565663764424   -4.11254878627589    3.62087385330778
H          -1.57935350235821   -1.83617889131549    0.90190259086550
H          -1.81018331685660   -7.89269223429813    2.48748261785018
H          -3.96676208865481   -5.89337601546949   -0.13112030323061
H          -6.42353407083869  -10.73722983983930    0.81157425927267
H          -6.21395744900517   -6.36095378444851   -1.62100661256811
H          -8.64921547603207  -11.21883242742024   -0.73912782409206
H         -14.01808893200307  -13.60637805114530   -4.60141064826076
H         -16.19010755059470  -10.81427451054837   -8.81803531452473
H         -15.94624658368604  -14.96553106283429   -6.02282885866873
H         -18.06905277986179  -12.18866320152988  -10.27703184639465
H         -20.08575451703880  -15.48042530709679  -10.08838498488792
H         -23.24720899345528  -14.28458173265112  -14.11825081655392
H         -20.25531727561217  -10.44287901240211  -16.79373941463692
H         -24.33278298518028  -13.16617988580673  -16.06610851400421
H         -19.16363024350964  -11.52831668378621  -14.89892721015510
