111
 SCF done       -225.835129984758          0.000672761168
C          -8.40298121979663    1.49442293292932    6.85667632256403
C          -9.54021819526579    1.58110411842461    7.60998494374164
F          -9.71903952382149    2.61556216647660    8.44328555144674
C         -10.53587504690503    0.58843021268210    7.52220457862852
F         -11.64167792233906    0.69855863376015    8.27255857067401
C         -10.38012285848172   -0.47877491304835    6.68253437771879
C          -9.21870079375897   -0.59723165656170    5.89534718641344
C          -8.21156376712894    0.40658432277128    5.98162168843021
C          -7.03544600340936    0.30830033611163    5.20170322573173
C          -6.86961867340225   -0.76385661628925    4.36592916648667
C          -7.87895993730889   -1.76328380649013    4.29209406761430
C          -9.02697091662488   -1.69419515745373    5.02564394631679
C          -7.44990664944263   -2.81166082379127    3.34778999294872
O          -8.08877842157217   -3.80276605009869    3.03948941948555
C          -6.12069432040493   -2.41629077476398    2.87518541112828
C          -5.77910941432419   -1.13994435661464    3.46619165820843
C          -4.65445762810007   -0.38592406478153    3.23886833525601
C          -3.60212163485273   -0.71520401767685    2.36070203871498
N          -2.70441566973505   -0.90570381220772    1.66876025548764
C          -4.39862024076399    0.85474742104766    3.85834441514778
N          -4.13066637770824    1.87027440022594    4.32277842717991
C          -5.30814548134604   -3.16257018100986    2.05152334171556
C          -5.50735510333041   -4.42106419889393    1.47768597808907
C          -4.50423003240649   -5.06722128075885    0.73342072758093
C          -4.85097944367826   -6.32190118224324    0.29494888438120
C          -6.15947656824021   -6.65582585916625    0.69013896954222
S          -6.93791221758069   -5.42569323251935    1.59731384273746
C          -6.62390122903873   -7.94172155136673    0.35263993143865
C          -5.74963906502491   -8.79864202914156   -0.32594995025050
Ge         -4.05703065490961   -7.84831264591505   -0.67370909463369
C          -3.73996943526523   -7.48606518797174   -2.59722305408556
C          -2.49988568862214   -8.64580910237700    0.25843601400825
C          -6.30111889079683  -10.05094509121215   -0.52421350925682
C          -7.59344963205182  -10.17569411440969   -0.01959481786640
S          -8.14021153133476   -8.67961054827719    0.69743743188385
C          -8.43213072183817  -11.32278371849515    0.02644915204948
C          -8.01662725509332  -12.63763377927680   -0.29461033562332
C          -8.87719788957834  -13.77033337311854   -0.08742883519742
N          -8.42519844565065  -15.00730092792964   -0.37385473504468
C          -7.22681613610578  -15.16740493753764   -0.83234421408455
C          -6.37991855699368  -14.05049432824642   -1.03677202483657
N          -6.77245705904561  -12.84715588095896   -0.77361710065610
F          -5.14407541684553  -14.20162001658270   -1.51478524353342
F          -6.82237708505320  -16.40376925692868   -1.10986539306961
C         -10.19379812482419  -13.66518603863476    0.41979134214461
C         -10.64388028392704  -12.34430810819738    0.65493765042307
C          -9.76927143449320  -11.21188696192061    0.47535596129844
N         -10.37458466647647  -10.06703013327976    0.78712318163456
S         -11.87951582989361  -10.36904968281689    1.25097764374059
N         -11.84731489439635  -11.96609220781940    1.08843589412222
C         -10.97045392293541  -14.80980732125585    0.73576078437372
C         -12.28876470826674  -14.82879087338763    1.18672572610380
C         -12.73897609059957  -16.09114439694725    1.52207599470591
C         -11.74871950433573  -17.06360192847159    1.33684997121136
S         -10.28612188048436  -16.41163578158907    0.69946338837241
C         -12.04399952530247  -18.37322851673579    1.76292405032441
C         -13.31728219955977  -18.61169773222306    2.29558124674326
Ge        -14.34302374340039  -16.93024531101721    2.30008146806352
C         -14.73686009635517  -16.34281245733968    4.14820062150475
C         -15.90212647528790  -16.94220751221413    1.07057986832897
C         -13.41869338090325  -19.86913823525267    2.85229583772066
C         -12.24815116564820  -20.62090503699659    2.75748138465064
S         -11.01554609426491  -19.74281610333248    1.87531002544424
C         -11.96119515885520  -21.89781263805331    3.26407059176463
C         -12.58216919152361  -22.58097502715059    4.27649767200088
C         -12.37517933773045  -24.04802282924478    4.37338333229488
O         -11.57686283377644  -24.71060501242384    3.74962426480291
C         -13.37639214928525  -24.52332282140087    5.35091060095487
C         -13.66690737244434  -25.80094014113033    5.73136901292291
C         -14.69480801036435  -26.01923265634820    6.67670016528754
C         -15.40984592649635  -24.90362818802816    7.19988716263412
C         -16.43888080601761  -25.12658487797359    8.13638891502332
C         -16.73998778436850  -26.39730406798970    8.53912650026086
C         -16.03033060555500  -27.49976505905735    8.02346759220491
C         -15.02920222398300  -27.31639363227803    7.11108270595701
F         -16.34720876147137  -28.73519514599735    8.43616385868218
F         -17.71735859641419  -26.60679715794382    9.43197369701799
C         -15.08161190971583  -23.59074905287998    6.78985822915096
C         -14.07076412859258  -23.40224923029758    5.88639430693565
C         -13.48738843622103  -22.18199946480978    5.32596794817124
C         -13.61668489705066  -20.93929980945783    5.89835897414363
C         -12.87620355431971  -19.79350690949793    5.55161116856704
N         -12.30022238388900  -18.81769494150984    5.36156015062158
C         -14.47737521883122  -20.65721279369185    6.97832694106242
N         -15.18021265304068  -20.35128428644281    7.83366721070932
H          -7.65065484415686    2.26358764296336    6.93596421782365
H         -11.15116916718554   -1.23121190385882    6.62696296137217
H          -6.29383356433121    1.08501485517407    5.29258254313705
H          -9.77569541382941   -2.46776172075831    4.94738141726698
H          -4.33653030988495   -2.74238883059273    1.82093245542125
H          -3.55084624071980   -4.60098457048458    0.55092447973577
H          -4.62554748633785   -7.05285790409203   -3.05145834046459
H          -3.49732050854575   -8.40909622663999   -3.11471145488156
H          -2.91183763693138   -6.79417753526462   -2.71657047596304
H          -2.72872629431868   -8.80442567122513    1.30760501147765
H          -1.63905777285536   -7.98847212502422    0.18358883962905
H          -2.24657836632490   -9.60077482489899   -0.19164778496509
H          -5.79963848335135  -10.86670565062414   -1.00989684133791
H         -12.86989377426750  -13.92862557530472    1.27140998324395
H         -13.86863529664004  -16.51893701775272    4.77590687530279
H         -15.57554951315066  -16.90282830889913    4.55064674371138
H         -14.98245897264725  -15.28562391444798    4.16928906977455
H         -15.60420576826680  -17.29003664372481    0.08637971691837
H         -16.31108146827811  -15.94101472639588    0.97759861769115
H         -16.67784907111663  -17.59796299065210    1.45414441049463
H         -14.31956557661518  -20.25573244015625    3.29731480750917
H         -11.16413655001472  -22.44739325914129    2.77211140660765
H         -13.11892685854271  -26.63440752772074    5.31911401999975
H         -16.98867839207361  -24.29287116687046    8.54449582253563
H         -14.49542192450098  -28.17100504878257    6.72587906268517
H         -15.64516602710018  -22.76760289936834    7.19871984858172
