91
 SCF done       -199.479392598714          0.000734960573
C          -9.16548863763368    1.67681909676607   -3.42722791256196
C          -9.29007640078962    1.79187646447558   -4.78344254863259
F          -9.54749477828331    2.98385263707499   -5.33711210678387
C          -9.15038771889389    0.66266918289213   -5.61512005018531
F          -9.27718194328719    0.80516346853824   -6.94103041279268
C          -8.88876060185042   -0.56701986194862   -5.07857392952506
C          -8.75604010948284   -0.71802739349154   -3.68473915272651
C          -8.89583807941408    0.42308313383558   -2.84279124977343
C          -8.76732418438350    0.29632834772046   -1.44033039473474
C          -8.50940573763449   -0.93404428278795   -0.89600592043827
C          -8.37492076696277   -2.06784533269224   -1.74546650316056
C          -8.49031717610120   -1.97743061813713   -3.10240676556212
C          -8.11673922950442   -3.26000729336155   -0.91963301232444
O          -7.93789398558880   -4.39459231628778   -1.32494226859599
C          -8.12270741961060   -2.80154411517650    0.47454827800438
C          -8.33657213637034   -1.36643020020229    0.48966324316797
C          -8.36390091933957   -0.53810251084774    1.58162979006931
C          -8.18945636650482   -0.93378830899974    2.92442294242489
N          -8.05619746912941   -1.17195159426475    4.04023383734988
C          -8.56588583686757    0.85680761995181    1.51006076984346
N          -8.72296347625354    1.99378808977630    1.52543765355727
C          -7.98250042268435   -3.60529873906555    1.57650298955033
C          -7.79386369944787   -4.99244264723807    1.67561949415238
C          -7.72359198554824   -5.62668968693809    2.91889218864445
C          -7.55223847899267   -6.99160217789106    2.80465109003018
C          -7.47575456989622   -7.43004448292922    1.46738056848471
S          -7.63180710162061   -6.13439269081975    0.34515869795677
C          -7.31199151068636   -8.81579928003000    1.39359389588513
C          -7.27319448026181   -9.42575981382558    2.65552786813937
S          -7.42387866002218   -8.28854018135066    3.96445795489007
C          -7.12887320338714  -10.81094573260718    2.60840302279261
C          -7.04672596394126  -11.27721802174637    1.31338176277862
S          -7.14979417264562   -9.98007471457790    0.13417494934438
C          -6.90140407117980  -12.63571435192955    0.88234583193575
C          -6.69010196991604  -12.97107184286829   -0.44495971522819
C          -6.55087856257100  -14.29015331369115   -0.86477548632420
F          -6.33507453844837  -14.47470371974764   -2.18200933674598
C          -6.62587535268838  -15.40269091318047   -0.03347851252546
C          -6.84746494325799  -15.08759571455379    1.33750598754085
C          -6.97260585654937  -13.72573233451061    1.79328880123644
N          -7.16404951781523  -13.66220768294821    3.10904696446800
S          -7.18348551611126  -15.14759224863353    3.71530954147471
N          -6.95149153604291  -15.95172461354442    2.34530589892219
C          -6.49124194555018  -16.75555238770466   -0.48955854318360
C          -6.69644008590757  -17.89629047176206    0.26046446732418
C          -6.46921947457384  -19.05409559228898   -0.47823738599667
C          -6.07818617070463  -18.81058193706144   -1.80327970233305
S          -6.01436472190061  -17.12379774334079   -2.13876553011131
C          -5.84509579444680  -19.99404235569284   -2.50665345232691
C          -6.06264525370910  -21.13515436922476   -1.71641647744668
S          -6.56288697418922  -20.74811454685489   -0.09433251573266
C          -5.80766026478418  -22.32885489713771   -2.37861466946522
C          -5.42242364637037  -22.12944820420238   -3.69442758510238
S          -5.33573678727387  -20.41565287473943   -4.09332904795074
C          -5.01528469072608  -23.15320303610963   -4.57798616514794
C          -4.78537442916724  -23.11571982394581   -5.91932260535935
C          -3.89614820460086  -24.13940381157533   -6.53296705007086
O          -3.53535266876430  -25.18047783375579   -6.03545372650338
C          -3.50346320716924  -23.57066014684370   -7.83949829846132
C          -2.59446255838502  -24.04224613638186   -8.74181974104682
C          -2.34889524577534  -23.30153792835264   -9.91989107120270
C          -3.05055847737905  -22.08024441052967  -10.13856554937073
C          -2.78957094759267  -21.34094633672844  -11.30969434700803
C          -1.87826016310110  -21.79404052867375  -12.22171972561521
C          -1.18800630394246  -23.00373665353528  -12.00642223300841
C          -1.41783332073725  -23.74301060950535  -10.88024176363583
F          -0.29987891101703  -23.42345039498389  -12.91786108019939
F          -1.63081590365073  -21.08908326766581  -13.33367529208785
C          -3.99645091066308  -21.62300032200376   -9.19221857548502
C          -4.22246470498428  -22.36118019293201   -8.06223902197858
C          -5.14478511361594  -22.16367300786593   -6.94722015772187
C          -6.30195455842302  -21.43209422226704   -6.99470416332228
C          -7.31060294385755  -21.53416448455584   -6.01384361068188
N          -8.17144092130007  -21.64731977184012   -5.26321826897757
C          -6.65262239398858  -20.59730697600816   -8.07429346703553
N          -6.96713406854383  -19.89639082484399   -8.92679370527662
H          -9.27484840474419    2.55146148741307   -2.80517648531345
H          -8.78505515740052   -1.42171440633636   -5.72852792253944
H          -8.88033345507544    1.17959235968775   -0.83317381605216
H          -8.38319953482481   -2.85479735492351   -3.72191154978786
H          -8.03715049422250   -3.12043762370533    2.54366660059041
H          -7.80141331427895   -5.09323988918694    3.84892613383644
H          -7.08640114772404  -11.45803659794548    3.46358466620876
H          -6.62278638890388  -12.19799689560106   -1.19539890510127
H          -6.99405124993136  -17.87073282434109    1.29090037520300
H          -5.91477693805285  -23.30453138548135   -1.94157564301511
H          -4.75298448981238  -24.09178363996778   -4.09770296006696
H          -2.06767921582748  -24.96645147995883   -8.55915217903798
H          -3.31207629348895  -20.41500608053707  -11.49234574959785
H          -0.88121519988033  -24.66660355996577  -10.72945770856681
H          -4.51102786238709  -20.69333531556924   -9.37713353922086
