103
 SCF done       -218.537736919449          0.000745447304
C           2.52392344364251   -9.55866110546764    7.75670750115282
C           2.53002851422768  -10.19347906962873    8.96692288698952
F           3.56977177964979  -10.04839393176435    9.79798158129498
C           1.44613575584608  -11.00638695801680    9.35646492508169
F           1.47936297415637  -11.61542675176419   10.54877155373778
C           0.37081859992619  -11.17349200957818    8.52950295511950
C           0.33472535621306  -10.53202913835752    7.27613873116677
C           1.42963245763200   -9.70957915802128    6.88107619099814
C           1.41559511800987   -9.05419766605348    5.62873138935985
C           0.33881992061413   -9.21453056171810    4.79593992320095
C          -0.74938638499938  -10.03643596668078    5.20070018746168
C          -0.76445751806555  -10.68390910224787    6.40240914896821
C          -1.77663368281822  -10.03977018883400    4.14390251608746
O          -2.82671187809704  -10.64897437040958    4.16491184845614
C          -1.26759078203649   -9.15501824363275    3.07839165632318
C           0.04673815959106   -8.67223335827346    3.47125505939077
C           0.89061151286284   -7.87308858467232    2.74543506260411
C           0.64279470586656   -7.35635652936861    1.45583519645926
N           0.52765997457677   -6.89761373558631    0.40906188905234
C           2.16221843716663   -7.45443772172124    3.19392222084191
N           3.20393354651063   -7.07807628808448    3.49475574305322
C          -1.92689786914580   -8.81451363982244    1.93094136388863
C          -3.18652166759359   -9.21533386306828    1.43512316420513
C          -3.67670624532090   -8.72093909896036    0.23672935393238
C          -4.93255968405853   -9.23064120490180   -0.12043308761208
C          -5.41051476717095  -10.15800196172937    0.85153755991850
S          -4.29641263226653  -10.35272259274140    2.17494892276964
C          -6.62192212314660  -10.79769722253756    0.71142379285740
C          -7.38780604794225  -10.51411368547014   -0.42197101113405
C          -6.91112210503993   -9.57984926113835   -1.38894992332207
C          -5.70475556081285   -8.94097114821620   -1.25497415768733
S          -8.04822840322145   -9.38946607154510   -2.69816478206129
C          -9.13554673788881  -10.55922531414930   -1.96702459455243
C          -8.64150066253730  -11.04689732732804   -0.77921209782484
C         -10.36065154803125  -10.88381652577724   -2.62608664927235
C         -11.28527889377140  -11.85855994170811   -2.17290282793677
C         -12.51503147626573  -12.14724487427441   -2.88252348004434
N         -13.37160306490925  -13.04291002560129   -2.36869140409181
C         -13.08181213359059  -13.67561979699409   -1.26084435644808
C         -11.83945147049619  -13.43493698696286   -0.59295453187360
N         -11.00104770417346  -12.54285387268616   -1.05482269079872
C         -11.50152531950956  -14.15114045921200    0.58245834664299
N         -11.25273926891308  -14.74161997225758    1.53163866036640
C         -14.01751207186793  -14.60081849919412   -0.73403365522198
N         -14.75637091228256  -15.35574248377938   -0.29164085861047
C         -12.86079535054884  -11.49841453605699   -4.09412810082403
C         -11.94215842816978  -10.52366936765318   -4.53058612407058
C         -10.72564443258724  -10.22719323097109   -3.81854431556349
N         -10.01982861374167   -9.27492326021197   -4.43150188368891
S         -10.79518086654325   -8.80277763517951   -5.75112614736708
N         -12.06418301727518   -9.77180603166350   -5.62639774197720
C         -14.04329886585001  -11.77173894201592   -4.84852066056560
C         -14.97716705177064  -12.76158567470282   -4.65287021267233
C         -16.03155261388751  -12.73983517884374   -5.58693435291487
C         -15.88763587936077  -11.68126743289760   -6.52907032954105
S         -14.43347381015423  -10.76724080341164   -6.23522320861984
C         -16.80745846891421  -11.45801934859698   -7.52547841052483
C         -17.91053402117056  -12.31443778131507   -7.60461184829687
C         -18.04761732831396  -13.37754204305071   -6.66576627917557
C         -17.12978509375036  -13.60032865148270   -5.66621222552156
S         -19.48976490593360  -14.29853868546771   -6.96344291846080
C         -19.88716432206200  -13.29916786508942   -8.35109642865342
C         -18.96400067826041  -12.29811908048680   -8.54031432505859
C         -21.09727885474907  -13.56667915519905   -9.03766492521610
C         -21.52274590913863  -13.16822382048892  -10.26675286613704
C         -22.98367414305810  -13.24199253293084  -10.56350032775743
O         -23.82147864032915  -13.82634284462061   -9.91870840928678
C         -23.17850583619239  -12.40921791882713  -11.76626710855665
C         -24.34378652010413  -12.05036539998718  -12.37998285789845
C         -24.29146163046838  -11.21068585278746  -13.51487681395476
C         -23.02717892091312  -10.75341192975631  -13.98827760230849
C         -22.98273564451148   -9.90925551362334  -15.11608104141773
C         -24.13795774911848   -9.53961693697904  -15.74577212551901
C         -25.38757075273284   -9.99404726902337  -15.27771380537881
C         -25.46415280527241  -10.81233089301516  -14.18573652407497
F         -26.50324292477975   -9.61438463987534  -15.91397733018531
F         -24.09340017923876   -8.73817757912218  -16.81749029108640
C         -21.83654353588104  -11.14803299396565  -13.33597739255446
C         -21.91063560142369  -11.97125146577742  -12.24415027710513
C         -20.86819662943452  -12.56300506633609  -11.40692352503436
C         -19.55890239518446  -12.71992950777000  -11.77920474034505
C         -18.63410780117994  -13.51939812886453  -11.07788095292037
N         -17.85450337275075  -14.18158100508660  -10.55769229045519
C         -19.00452010537368  -12.16346095331873  -12.95048826398673
N         -18.50028742639275  -11.71299035339391  -13.87774904754056
H           3.36175767905794   -8.94053849749872    7.47409015381712
H          -0.45075852649736  -11.79882082697864    8.84201396593769
H           2.25937795471820   -8.43864659863675    5.36301070644148
H          -1.60457161021305  -11.30137077959205    6.68168126540746
H          -1.42520419257854   -8.11703043568179    1.27058923745574
H          -3.13143696657558   -8.01057430402299   -0.36037492068338
H          -6.97464167413634  -11.49972219003446    1.44999490364954
H          -5.35229951317607   -8.23811662500454   -1.99276755569966
H          -9.16620300386039  -11.76932679838159   -0.18299811646765
H         -14.90659871944561  -13.48221989498473   -3.86027658266645
H         -16.68550586342273  -10.65490219356920   -8.23448184780502
H         -17.24641337842508  -14.40774481921209   -4.96135946582828
H         -19.05809528755892  -11.54054482567896   -9.29843889200600
H         -21.83684472439763  -14.12590061835321   -8.47075427258178
H         -25.29251931291105  -12.40223695281126  -12.00448516877837
H         -22.03471214119669   -9.55547413489529  -15.49015267029250
H         -26.42790119936012  -11.15162687706800  -13.83969970604489
H         -20.89480003404402  -10.78107904795739  -13.71193622442701
