95
 SCF done       -213.833964795022          0.000936278171
C         -10.49070977379082    2.32361786989495   -3.62402598176503
C         -11.43912737168649    3.05468453154511   -2.96544422070193
F         -12.01896710360085    4.10210366022482   -3.56597712098456
C         -11.81994104208297    2.71807582711481   -1.65077608315018
F         -12.75201855787350    3.45301333764706   -1.02944831015202
C         -11.24839722450747    1.65260606807180   -1.01367760940647
C         -10.27097313960095    0.87735868137974   -1.66723030478217
C          -9.88157630015065    1.21905971588663   -2.99503512740513
C          -8.90082832025803    0.45666085530664   -3.67013812380388
C          -8.33536604929870   -0.61994959414196   -3.03899444104009
C          -8.74241391109780   -0.96313969732017   -1.72109172736829
C          -9.67627895016225   -0.23875386307277   -1.03834240010141
C          -8.02795339312016   -2.17817998400228   -1.28169862259101
O          -8.10212182131989   -2.67898123559076   -0.17960694906353
C          -7.24257932207688   -2.62310261771361   -2.45716529575609
C          -7.32969466548852   -1.58441548757315   -3.47248673523013
C          -6.56459147694279   -1.47294282659303   -4.60313403574724
C          -5.51660884370462   -2.34345586804349   -4.97300572641590
N          -4.63855365398333   -2.99079378325921   -5.33116107924024
C          -6.69458796581516   -0.42279990568402   -5.53687880644271
N          -6.75707617752406    0.40242112819008   -6.33203674354618
C          -6.67385195185294   -3.84698120211424   -2.68592057029532
C          -6.57155162088883   -4.98806179712669   -1.86758282042698
C          -6.80270623548662   -5.19620016064345   -0.51596834657292
C          -6.64521992770055   -6.52727249567238   -0.16181606156695
C          -6.28481036432309   -7.36977621693610   -1.23362370027437
S          -6.10280210703401   -6.48311116494072   -2.69156108876724
C          -6.22869452418524   -8.71033306474919   -0.85649511130993
C          -6.54292372844848   -8.88993931792167    0.50223180520906
S          -6.87538937032196   -7.39534910204658    1.33113174145634
C          -6.59601840660175  -10.22217364176176    0.89053246299693
C          -6.32906189576376  -11.08110546544823   -0.16355847856481
S          -5.95702394229194  -10.21863334826921   -1.64817506114869
C          -6.43672509100700  -12.50068657043133   -0.19657324726322
C          -6.91924182661065  -13.29318087808885    0.87147136246356
C          -7.22980298441736  -14.68361793800963    0.68827520033187
N          -7.74563750721550  -15.38896657191369    1.71491904887057
C          -7.93995498239929  -14.81938917206219    2.85842779188001
C          -7.61053658359209  -13.45134896733869    3.04505076466206
N          -7.12952165998670  -12.73539006268936    2.08304762523459
F          -7.78182732255043  -12.86133403715816    4.22503575205295
F          -8.44362769653661  -15.55036159609368    3.84577922333769
C          -7.04957070191989  -15.36667263506613   -0.53585182071711
C          -6.43498289589813  -14.61274833808298   -1.56057014833617
C          -6.15259269390368  -13.20896745848929   -1.38582926088702
N          -5.62381371494809  -12.67251848876749   -2.48554153337668
S          -5.48282414473363  -13.80272615693204   -3.61346875698527
N          -6.09291528005398  -15.02956930737454   -2.78134384634672
C          -7.55128458786683  -16.68228921263554   -0.73196826041748
C          -7.41770033796046  -17.46281021506017   -1.87048911873965
C          -8.16327777601262  -18.63155657195253   -1.78657157098838
C          -8.88382014865283  -18.74834985606748   -0.58523463858639
S          -8.57902094841916  -17.42431148393178    0.47741257650162
C          -9.70115145447043  -19.87557135747866   -0.57757554428569
C          -9.59510507071587  -20.63137875120973   -1.75707624388156
S          -8.46211438080091  -19.94813922941486   -2.88796357174696
C         -10.44836943610763  -21.72980592886762   -1.79262816902229
C         -11.26107267685804  -21.79190935291168   -0.67570021121168
S         -10.88508059211614  -20.52416671461282    0.48604036455426
C         -12.27534476339212  -22.74904911660645   -0.42104150747513
C         -13.38136759385927  -22.60084619457795    0.35574618243716
C         -14.10324073157751  -23.79738637353640    0.87199961867412
O         -13.96758386464251  -24.94001381536409    0.50316697953607
C         -14.96225624458491  -23.28651970450569    1.96097126468218
C         -15.74117525564691  -23.98303981256739    2.83974784443621
C         -16.46590588872467  -23.27592334328022    3.82553498553598
C         -16.36117800838609  -21.85566498731104    3.88869013060003
C         -17.07974803195351  -21.15798910229231    4.88030860227493
C         -17.87012702304896  -21.83727419949247    5.76416756858609
C         -17.97610395401448  -23.24137606090375    5.69886874115861
C         -17.28905867622356  -23.94678128627994    4.75106605638013
F         -18.75871452937263  -23.88102352409653    6.57798415002500
F         -18.55440701595001  -21.17288510442800    6.70412203258919
C         -15.55320095149052  -21.16016721617112    2.96088630435838
C         -14.87218691451543  -21.86551604366363    2.00564160902571
C         -14.02022149023787  -21.42217183438556    0.90692607917863
C         -14.06141549344312  -20.17962616824018    0.33238174870487
C         -13.45408329136878  -19.87061810441038   -0.90300684881890
N         -13.02034845518197  -19.59574291139003   -1.92955744216535
C         -14.79325618483830  -19.09670688418321    0.86068334869339
N         -15.36079214704929  -18.18190319503190    1.25823814879953
H         -10.20965778468358    2.59631514799669   -4.62926623148589
H         -11.55138050527984    1.40667859532173   -0.00797246945722
H          -8.63049272283516    0.73842138458530   -4.67488471748931
H          -9.96238097879634   -0.51901559034154   -0.03598734283777
H          -6.29643659216531   -4.01468250469228   -3.68867097095224
H          -7.09015796279208   -4.41040191323754    0.15747652317248
H          -6.83567652370873  -10.56783187164458    1.87703264453893
H          -6.82118509906265  -17.16342303201678   -2.71130202969603
H         -10.52582416204677  -22.41865138123574   -2.61342382822817
H         -12.12653455670762  -23.73474920729761   -0.85103367524638
H         -15.80522982078257  -25.05901383069735    2.78363353860054
H         -17.01258135335522  -20.08298833460683    4.94093459041695
H         -17.38094805684331  -25.02098781025612    4.71516660965604
H         -15.48397573721542  -20.08639765215612    3.03299866879764
