153
 SCF done       -283.415716623137          0.000953526847
C         -17.54902107166241   -7.22158027114241    1.67071427409257
C         -18.35207065111629   -7.53244681770822    2.73192179870632
F         -19.68319365911460   -7.42253783991371    2.62446917311129
C         -17.79428594645861   -7.97186011744612    3.94910560804508
F         -18.60583987206499   -8.27086252688180    4.97334385222458
C         -16.44029299931598   -8.09451361364345    4.08812714577312
C         -15.58620631835870   -7.78301699301810    3.01249024173482
C         -16.14868220957020   -7.33719851340695    1.78140520083086
C         -15.31096783610036   -7.01788573222249    0.68820745606191
C         -13.95339075895402   -7.14332801768257    0.82286332596338
C         -13.40165531433518   -7.59641596532666    2.05205364324414
C         -14.18381293452568   -7.90857033911360    3.12595885525477
C         -11.92976265231225   -7.66855939373666    1.94042337806418
O         -11.17087488088661   -8.00753082634693    2.82353809721693
C         -11.62236100839064   -7.30681095761350    0.53712038440424
C         -12.85711039424921   -6.89779165312560   -0.10818872511886
C         -12.97787144345080   -6.30677073571390   -1.33865516062027
C         -11.90359958115780   -5.96996223693483   -2.18989553118165
N         -11.08580191074882   -5.63760278671494   -2.92412312135941
C         -14.20862463186086   -5.91229370071183   -1.90349485147903
N         -15.17970830733609   -5.57789514289595   -2.41649390814208
C         -10.44614843066160   -7.51956611558705   -0.12886146462696
C          -9.17846393885340   -7.86990664435823    0.38251139588203
C          -8.63204637160591   -7.72341890124213    1.63576711090504
C          -7.31033536615132   -8.19839209835875    1.73769647938556
C          -6.81964903671827   -8.69536802415555    0.49741881343984
S          -8.02219323893033   -8.56535318695203   -0.75276800418566
C          -5.55967384542282   -9.24861842116748    0.34827292095672
C          -5.10075589075003   -9.80953396771896   -0.92960770439187
C          -5.19025559136634   -9.06405617185796   -2.10268563487152
C          -4.76368421431671   -9.59459027024027   -3.30315154462628
C          -4.24267174579380  -10.88230648642849   -3.37199567454620
C          -4.15984626292154  -11.62431958572083   -2.20127060250766
C          -4.58078210035327  -11.09885840559831   -0.99422144952381
C          -3.78615797442376  -11.44127297307743   -4.68437125628608
C          -4.74333762995635   -9.26277771892901    1.49369931777172
C          -5.21686022464546   -8.73445968597878    2.72393615485193
C          -6.49221534615651   -8.21837630615873    2.88652164613137
C          -6.98133164601032   -7.75784546145849    4.19016861919233
C          -6.22162760723948   -6.88267495542666    4.96365090501403
C          -6.67340561642133   -6.46830788297098    6.20044088937640
C          -7.88770783601817   -6.91849799714844    6.70596985181827
C          -8.64157035690150   -7.79305141360853    5.93267505406454
C          -8.20112341511711   -8.20825400278276    4.69158580452461
C          -8.35587593942174   -6.49022025115356    8.06219387247570
S          -4.01965044135487   -8.88778078301321    3.98125174174456
C          -2.90855051902651   -9.65425466055199    2.86873853801241
C          -3.42837002303236   -9.76481010694279    1.60863289183101
C          -1.62159616155974  -10.13730678391011    3.28500402981786
C          -1.01293176527488   -9.82258306837992    4.49138819252844
F          -1.62176507319182   -8.97901220858295    5.34401061568222
C           0.22863304926876  -10.33509114395022    4.90160478107062
F           0.66974591874803   -9.93404158989351    6.10772899609254
C           0.97084183074615  -11.23324626628593    4.14934740177872
C           0.37340543466582  -11.57045149665311    2.91344725740507
C          -0.87372821686668  -11.03258623587192    2.48187093980569
N          -1.13371827925305  -11.56243386784191    1.27756733800850
N          -0.11495990447123  -12.34015459222806    1.03518053665772
N           0.80858812553230  -12.39364721278771    1.95127568590999
C          -0.01903859411909  -13.10298684605526   -0.17052795296041
C           2.21247713109486  -11.82843804033086    4.56185986281326
C           3.06258790931834  -11.43260101071121    5.55645181245646
C           4.18075031990671  -12.28469762985181    5.71713200720022
C           4.15492233991063  -13.36082077746931    4.78855870881593
S           2.76602930595797  -13.27174603560053    3.74061320799882
C           5.11579011315641  -14.35270904512106    4.76328372969941
C           5.14842533335452  -15.44576300055797    3.78389503000483
C           5.16412349244040  -15.15964679526713    2.42225622446048
C           5.35012114312458  -16.16999844284783    1.49918483078866
C           5.51643083157301  -17.48929910251858    1.90308444853906
C           5.44770805010912  -17.77701076010742    3.26156242394823
C           5.26853050541916  -16.77213245575013    4.19148376740875
C           5.80962684541155  -18.56684770957762    0.90886542384691
C           6.16974555142790  -14.22358869453045    5.68843570133519
C           6.24109351609780  -13.10712014109258    6.56299146114827
C           5.25034260418303  -12.14040546340534    6.62055239873980
C           5.31149850566628  -11.02480057242646    7.57455857596256
C           6.44645373112403  -10.22399833261927    7.65302277963039
C           6.50633572696622   -9.18130714141660    8.55792700999093
C           5.44417346216662   -8.91438800935255    9.41155053793533
C           4.31361119090366   -9.72111109392741    9.33396167629733
C           4.24319732814713  -10.76054097860183    8.42869496483682
C           5.49798782336615   -7.78033159399535   10.38782851536254
S           7.69549143803374  -13.15752256738235    7.52192217232413
C           8.21693475760740  -14.63614287004411    6.72529497340915
C           7.28341769415409  -15.06912320834901    5.81478209045380
C           9.43532086535975  -15.24593248376754    7.09306046739091
C          10.08867559335878  -16.29227810433626    6.50659597213600
C          11.08653494563045  -17.03809806522738    7.32118078486115
O          11.59715843751316  -16.67599976491481    8.35551593186864
C          11.26325904654564  -18.33257326653153    6.62976063075212
C          11.97367175338775  -19.42762499607458    7.02734886315813
C          11.96457380630208  -20.58412587551944    6.21505967831029
C          11.21237836992856  -20.58213132774077    5.00471725933205
C          11.19963207785670  -21.74197908006500    4.20425544252613
C          11.90294876970203  -22.84990547491300    4.58531921990707
C          12.64816494662502  -22.85008840627859    5.78122888760895
C          12.67935518091959  -21.74143382098814    6.57998719496001
F          13.32732747828367  -23.95129060341356    6.13060253000606
F          11.88923557511493  -23.95114158514076    3.82188888599805
C          10.49427370374484  -19.42856384079158    4.61413222917330
C          10.52453650690085  -18.31719329878301    5.41293274214226
C           9.92414445071699  -16.99373112528079    5.25190808044700
C           9.50547115124203  -16.47161895690427    4.05342399142177
C           9.21988928686592  -15.10513607522274    3.85547068364706
N           9.01682838510451  -13.99608488447174    3.64186941914516
C           9.34531124332916  -17.22524452269980    2.87504411317413
N           9.15273087199172  -17.79528772834879    1.89659261756333
H         -17.99232037641930   -6.88534172272014    0.74642295381372
H         -16.02868375153894   -8.43296066317289    5.02611660393163
H         -15.76680879470924   -6.68987853135806   -0.23188894637327
H         -13.73828261220663   -8.24902450168217    4.04831638101360
H         -10.48169796808794   -7.47042550289776   -1.21149385757236
H          -9.15569270154915   -7.26291278153219    2.45129594943510
H          -5.57772061640598   -8.05666439507965   -2.06824164360468
H          -4.83517335487268   -9.00216332824312   -4.20381763115251
H          -3.76639085220810  -12.63075947940506   -2.23384690667546
H          -4.52902354322264  -11.69936339937511   -0.09795269581573
H          -2.95683926117958  -10.85417314929827   -5.07790083104416
H          -4.59363147604833  -11.40195651823015   -5.41393518891320
H          -3.46167321735325  -12.47350115012523   -4.57931697242346
H          -5.28498338795389   -6.50456697380042    4.58161147090972
H          -6.07447033885832   -5.78356326443131    6.78332467646312
H          -9.58810870194180   -8.15616274479595    6.30579809888829
H          -8.79719168246112   -8.90082377311237    4.11716109752176
H          -8.05052741031399   -5.46777476244049    8.27338099089994
H          -7.91760374356503   -7.13461932074539    8.82526005841638
H          -9.43803062958788   -6.56118588239543    8.14118089722209
H          -2.87454387106332  -10.19092470550402    0.79385531351548
H          -0.18303151703728  -12.45199312329349   -1.02882822569459
H          -0.77648609735535  -13.88810494040645   -0.17559358834211
H           0.97304797981371  -13.54632065571920   -0.20810183762378
H           2.91608048358856  -10.54773242596831    6.14710090895550
H           5.06875837615757  -14.13568151762929    2.09367122625438
H           5.38765619014074  -15.92879139859012    0.44679330756344
H           5.54954641582982  -18.80040320466479    3.59479231886666
H           5.20911300332260  -17.01362525240913    5.24392666930733
H           6.89096436889688  -18.66432771825197    0.80140918233333
H           5.39305287377893  -18.32512023158996   -0.06582560866212
H           5.41385504751324  -19.52445833141794    1.23963571261913
H           7.27624282195857  -10.40558755513259    6.98613705581914
H           7.39319858706243   -8.56553907893975    8.59985057410172
H           3.47901963424013   -9.53107053472178    9.99345526899980
H           3.36537482306200  -11.38933916724528    8.39664814068195
H           6.50406341925862   -7.37528697693346   10.46047803889853
H           5.17832037625413   -8.10904548177759   11.37508244865448
H           4.82741103225724   -6.98148313849929   10.07071348699305
H           7.36797775881083  -15.99280608973432    5.27415745241373
H           9.88397302396373  -14.89496896660648    8.01742976102616
H          12.53388504206304  -19.41316031914348    7.94976433475298
H          10.63732336070825  -21.75761213597941    3.28368656398684
H          13.25415935500251  -21.75742287072493    7.49267971900110
H           9.92877146136122  -19.45623960363510    3.69632968150391
