125
 SCF done       -232.647476077868          0.000748811633
C          -5.67004536851474   -1.77156816096068   13.75326151339882
C          -5.79409667077265   -2.90125535379859   14.51193163437712
F          -5.73434047350006   -2.82550080719018   15.84777025391877
C          -5.98517472529671   -4.15766096741936   13.90204713613882
F          -6.10122065347500   -5.24883583471869   14.67084233914696
C          -6.05126770728182   -4.26648878287618   12.54140744571645
C          -5.92662933684387   -3.12063275535174   11.73181320522437
C          -5.73241267035064   -1.84967041973019   12.34711922598108
C          -5.60217255108464   -0.68653816363859   11.55511687273314
C          -5.66418732523192   -0.79262189029058   10.19011776123335
C          -5.85523302970833   -2.06468068212545    9.58439108664602
C          -5.98547416833306   -3.20527451059139   10.32318274149356
C          -5.87538182114169   -1.92174127688217    8.11301716496448
O          -6.04994122935566   -2.81736825696043    7.31725090124575
C          -5.57636670326955   -0.48718547064945    7.85513929863320
C          -5.55812372345749    0.20673241443474    9.13467794858322
C          -5.53905441415693    1.56328212365035    9.31564597758802
C          -5.54855577279376    2.51564655727615    8.27331840408755
N          -5.58008238252144    3.34781308964151    7.48308647418791
C          -5.55560772120373    2.18807745940734   10.58063570040567
N          -5.56187261551335    2.74422632433022   11.58466885996929
C          -5.14014678017164    0.04973501946713    6.68324924955343
C          -5.15990075557019   -0.53276228701919    5.37118026153755
C          -4.13187674747556   -0.18358810572976    4.47694722859163
C          -4.06708023667640   -0.72063199710108    3.21072361074485
C          -5.06939843352878   -1.59613598253903    2.80658567855968
C          -6.13181329677818   -1.91080122798675    3.67278170014543
C          -6.18390309729097   -1.39145414597374    4.94165632726510
C          -7.10870318778462   -2.84903720194893    3.00247724042844
C          -7.16381315530645   -4.18809741957282    3.74601251694661
C          -8.50444572153444   -2.22678936670136    2.90736369321798
C          -6.47874322181929   -3.01387719220678    1.63843124749027
C          -6.92395755810724   -3.74722629774534    0.56942515145915
C          -6.16562833747392   -3.77507948078199   -0.61386605797578
C          -4.95727117847885   -3.06104483103790   -0.68093090269991
C          -4.51521281590559   -2.31712271074765    0.39197258707683
C          -5.27691817327428   -2.28497088554491    1.55348250051833
C          -6.63147643062651   -4.51909941719852   -1.74871696104812
C          -5.99135120840876   -4.77558852566258   -2.96302914766490
C          -6.79597474956074   -5.55328465710862   -3.87977662368769
N          -6.32621075517958   -5.87923852692735   -5.08878940813791
C          -5.11893502332543   -5.47589926622657   -5.40619938463193
C          -4.61988794415347   -5.85223629132775   -6.74934741894898
O          -5.28314874263523   -6.49504316178536   -7.53834127740408
C          -3.25498428316403   -5.39129906722081   -7.05548168759468
C          -2.50739176779479   -4.67666770606912   -6.20779260288964
C          -2.95763465261566   -4.25933966109522   -4.86739120147456
O          -2.26271744672805   -3.59106246766988   -4.13013103776013
C          -4.31991181260481   -4.71185459109942   -4.49700846891641
N          -4.76030782295983   -4.37814800647425   -3.30698667880083
C          -8.05499781978775   -5.88385725879699   -3.37231496991473
S          -8.20706410409184   -5.24173801832745   -1.77197119431063
C          -9.12134053807925   -6.59759552195167   -4.01389142831083
C         -10.37623715875575   -6.71668161217507   -3.39409142488737
C         -11.42708562121913   -7.35240524310949   -4.01855281596351
C         -11.22837921125439   -7.88687509915577   -5.28674805718972
C          -9.96750676665236   -7.79655290848849   -5.90388169771827
C          -8.92091738332122   -7.16255894903149   -5.28546396994732
C          -9.98457553112562   -8.45714222059997   -7.26166095714327
C          -9.59238276597412   -7.47242807850354   -8.36646104972330
C          -9.05646044274497   -9.67710797830339   -7.28205848794084
C         -11.42926631085660   -8.88590324805519   -7.36608748102725
C         -12.06782918849529   -9.50528494604946   -8.41014536700929
C         -13.42072298712569   -9.85510001959178   -8.28104742751222
C         -14.11271263065639   -9.51542652223406   -7.10880195079522
C         -13.48351764542354   -8.86249398290769   -6.07122329791709
C         -12.13290598334782   -8.55931287160993   -6.19146766250888
C         -14.08034604642331  -10.49933626359240   -9.38474516029888
C         -15.12634641003680  -11.36072724089120   -9.37323000115877
C         -15.90097733779297  -11.58994449170327  -10.62552613930774
O         -15.57909275550220  -11.26899315050381  -11.74529706332664
C         -17.15782521021700  -12.23342098819723  -10.19118965116542
C         -18.26273054277759  -12.54124459140821  -10.93142544778006
C         -19.37243441150927  -13.13853109250425  -10.29323671494694
C         -19.31681276621941  -13.39991036588835   -8.89308771230552
C         -20.43004271458236  -13.99125190514601   -8.26215020726758
C         -21.54323058957111  -14.31124638605263   -8.98712321457164
C         -21.59652743798834  -14.05339434939017  -10.37193758864230
C         -20.53473367239130  -13.47919320456994  -11.01249750023065
F         -22.70174459257313  -14.37633720924284  -11.05684443331739
F         -22.59914739360000  -14.87480526470870   -8.38592489725247
C         -18.15728221772045  -13.07463326235271   -8.15320914208215
C         -17.08926375832061  -12.50562442001636   -8.79481928756899
C         -15.77205840067216  -12.10424436473453   -8.30743787293404
C         -15.17777442627761  -12.56298321895394   -7.16306187830378
C         -13.81435172029102  -12.37055145059194   -6.85345122174471
N         -12.70417013621254  -12.29810658068713   -6.57242244689304
C         -15.83874381271680  -13.35600341569458   -6.20267958053327
N         -16.34390135192711  -13.98347513833179   -5.38511622387822
H          -5.52541670538629   -0.81761723962572   14.23588903147232
H          -6.19751565214774   -5.23530183306378   12.09003351655189
H          -5.44694356207995    0.25937585731344   12.04838342112314
H          -6.12912034577442   -4.15897481983076    9.83835057186489
H          -4.65987461980095    1.02098744162173    6.73544038018768
H          -3.36384853211607    0.49970805764667    4.80966420000796
H          -3.26028753393516   -0.45978212472760    2.54295940773617
H          -7.01285181864685   -1.60889296067996    5.59362534196738
H          -7.48533946278132   -4.03328460649106    4.77242384924357
H          -6.17845496083689   -4.64838146930668    3.76301860911790
H          -7.85777569851158   -4.86580080594254    3.25464771761624
H          -8.91309332137945   -2.06905056143614    3.90215281416424
H          -9.17345399964042   -2.88394038269912    2.35717457970939
H          -8.45746282275358   -1.26879076096809    2.39367621847184
H          -7.84636735136384   -4.30810416741230    0.62406847657251
H          -4.37934203324095   -3.10178297941633   -1.58975546205413
H          -3.58888869077602   -1.76774570367007    0.32445621820300
H          -2.88460032873731   -5.67151354097613   -8.03252914570485
H          -1.50879024479599   -4.35624552930749   -6.47326377070131
H         -10.51657168234370   -6.28592152416587   -2.41257053052108
H         -12.38795756421415   -7.42619242029105   -3.53221793727014
H          -7.95631598549974   -7.07836772651639   -5.75770957423517
H          -8.56641754961750   -7.14314781762516   -8.22388861023620
H         -10.24533958320034   -6.60216052532180   -8.34842649059889
H          -9.67221089326020   -7.94766196402785   -9.34082617921956
H          -8.02904362590107   -9.36342582152187   -7.11672341546215
H          -9.11898483624802  -10.17956229799936   -8.24386842540345
H          -9.34202749514631  -10.38202170370441   -6.50450527245472
H         -11.53969295722924   -9.76051444496693   -9.31672209135459
H         -15.16895823833137   -9.73404959538781   -7.04028636055881
H         -14.03272242183360   -8.59311606125548   -5.18174831622034
H         -13.73579543453540  -10.21628405714672  -10.37538050186108
H         -18.28952306131585  -12.33228404999358  -11.99003294291116
H         -20.40471975670679  -14.19899064143703   -7.20382823888586
H         -20.59080779538152  -13.28799737908072  -12.07269254938456
H         -18.14472723914363  -13.27548018279609   -7.09369799287197
