81
 SCF done       -164.799558296674          0.000495443776
C          -9.86758343266015    1.99872940973328    6.43580544598940
C          -9.79015575655612    1.97942111420968    7.79998776403360
F          -9.95058031822716    3.11020459124100    8.49986378285016
C          -9.54237779464046    0.77418928594094    8.48746496904118
F          -9.47265122174889    0.78489252525123    9.82554093219199
C          -9.37536134454438   -0.39558993408992    7.80076401565349
C          -9.45089962980439   -0.40866495968062    6.39444904001729
C          -9.70103092428849    0.80919939310513    5.69813069740989
C          -9.78376264693253    0.82035999037048    4.28708916837069
C          -9.62496676634285   -0.35077556079296    3.59360463595044
C          -9.38014533081818   -1.56234788078326    4.29747927939641
C          -9.29000486033926   -1.60373521443289    5.65884841082317
C          -9.27088880570587   -2.67672074326153    3.33458003990384
O          -9.04762834209713   -3.83851389881537    3.60221632650371
C          -9.50300368308309   -2.07382840247651    1.99861750491503
C          -9.66747470262924   -0.64274988061013    2.16249196854276
C          -9.80762107897608    0.29303099878121    1.17004668926998
C          -9.94829779234209    1.67750547052884    1.40328856188262
N         -10.06990878536806    2.81247649527224    1.52481198353236
C          -9.81389014178530    0.02857245527309   -0.21568643807754
N          -9.82153050427644   -0.09970829692848   -1.35690457910644
C          -9.59985309843610   -2.77882255621856    0.82891426339552
C          -9.43946258043410   -4.17463427657538    0.70689361748474
C          -9.61561012799358   -4.80266031230264   -0.49084653583797
C          -9.49429469630678   -6.19569731716615   -0.73656084470461
C          -9.00706620077694   -7.11033067494455    0.14165930399589
C          -8.89088932678123   -8.51487670707813   -0.09721809470035
C          -9.43181718966598   -9.19199316435174   -1.18438246438041
C          -9.29154864191623  -10.56423940390297   -1.35521430041657
F          -9.88641091987988  -11.07641753486674   -2.44987253789440
C          -8.59722192395193  -11.40816299074224   -0.48689740327723
C          -8.03360095140118  -10.73713937227768    0.63594289047795
C          -8.18262693736844   -9.32273997786174    0.83549497942089
N          -7.58278391262498   -8.91179698301071    1.94992291373989
S          -6.90252949427597  -10.17302208632622    2.67227915241836
N          -7.33099310342741  -11.30453542149230    1.61457953632135
C          -8.40188133680667  -12.81798829837833   -0.61324118090078
C          -8.88714921115336  -13.63648322876376   -1.58136379060156
C          -8.59281421234765  -15.02088042282214   -1.61981325116191
C          -9.11303021073875  -15.85659505465287   -2.55992211619600
C          -8.90880591206417  -17.25404264456034   -2.64087753974314
C          -7.91068827668284  -18.05013715448577   -2.15619989633075
C          -8.18036236862739  -19.51133232529666   -2.03706506734847
O          -9.12187873096228  -20.11107106455887   -2.50204700147590
C          -7.09078542616699  -20.04580214273419   -1.19723692447827
C          -6.93160111223969  -21.30606724727235   -0.69792944772731
C          -5.80783055381351  -21.58665743898712    0.11103114755372
C          -4.87307911693049  -20.54826674510234    0.39200457459614
C          -3.75638739882617  -20.83311935417509    1.20332605090734
C          -3.57512362205583  -22.08963226308441    1.70917909825758
C          -4.50021330190774  -23.11581383550556    1.43044052115776
C          -5.59370265710202  -22.87104644779335    0.64805384223222
F          -4.29806738133974  -24.33750938457158    1.94184612021083
F          -2.51225826738802  -22.35855926373463    2.47859808482362
C          -5.06344779464246  -19.25336517441047   -0.14290928217452
C          -6.15343269332924  -19.00734429243467   -0.93432905782317
C          -6.58254471533120  -17.80065880507822   -1.64217233477260
C          -5.76108541701399  -16.74548437221171   -1.94677786886694
C          -6.10911297113106  -15.69873585808646   -2.82237186297907
N          -6.33148818443630  -14.83597518956020   -3.54570164127339
C          -4.43752541466938  -16.61822356500634   -1.47777860577561
N          -3.36268791408068  -16.45401477623721   -1.10961931543071
H         -10.05737095082018    2.92981516605147    5.92498433773556
H          -9.18676702537734   -1.30965232587149    8.34169746779070
H          -9.97696583595674    1.75794568330967    3.79190865559891
H          -9.10254236492752   -2.53730675944045    6.16722819461389
H          -9.83277317233278   -2.24039421760158   -0.08123135157635
H          -9.19010650043346   -4.73344718325903    1.59533483299354
H          -9.89529573425979   -4.19285604108603   -1.34240633142793
H          -9.79935913775419   -6.52293616814907   -1.72130999305115
H          -8.63433815931681   -6.78958339278666    1.10409412918070
H          -9.99912913192845   -8.66274986923085   -1.93337775696256
H          -7.79006252614995  -13.24200101917183    0.17335520488544
H          -9.50659423626884  -13.25366680846620   -2.37744453159253
H          -7.96195878896080  -15.41754920420328   -0.83416109023360
H          -9.81999265648188  -15.44282038207098   -3.26762185657256
H          -9.71000143703487  -17.81470846637289   -3.11659974120441
H          -7.65253287102945  -22.07860569062162   -0.91786450930152
H          -3.03635094546899  -20.06046358867872    1.42330412882696
H          -6.29250679504108  -23.66696074461593    0.44343751002732
H          -4.34383456037236  -18.48619081687000    0.09411477010621
