97
 SCF done       -209.364122416589          0.000655232327
C          -5.52703238573133   -0.44702918489572    8.69166785394652
C          -4.83908843412695   -0.78637104247441    9.82294907601798
F          -4.70887835690451    0.09617839926884   10.82232998460429
C          -4.26010996994270   -2.06434558567770    9.95377425348406
F          -3.59105541795043   -2.37032283493054   11.07398851788774
C          -4.37806190826311   -2.98629083852193    8.95152938115527
C          -5.08256855625079   -2.66735552023365    7.77463973497446
C          -5.66698686503980   -1.37491347577029    7.64026422687538
C          -6.38026998227755   -1.03179267703765    6.46834302890067
C          -6.50960651480298   -1.95453679518050    5.46444818984670
C          -5.92806412894037   -3.24477832735741    5.61116568355424
C          -5.22835531765464   -3.60352324647894    6.72648351553177
C          -6.23214884024391   -4.04918622976587    4.41371782606138
O          -5.86805672828993   -5.19263437244028    4.20256525535616
C          -7.05719188393486   -3.19797147771825    3.54932562445581
C          -7.18637604463848   -1.89434211744104    4.16988277438295
C          -7.80191017318581   -0.78205268778010    3.65508769392197
C          -8.43304369776880   -0.69509153274976    2.39667707395238
N          -8.96265975577084   -0.53774697932505    1.38929428029583
C          -7.87394499570624    0.45927783704995    4.32173271261729
N          -7.96644497173684    1.49519719259090    4.80792357561178
C          -7.65751409757667   -3.59244111986141    2.37875789790006
C          -7.63240081628229   -4.82677391801646    1.71708709523112
C          -8.38425860330197   -5.06318742520932    0.55848339125448
C          -8.26045123851247   -6.34041324320938    0.06134891101195
C          -7.39185332721564   -7.12700636941931    0.81611425321039
S          -6.73830164773373   -6.25653199851506    2.16588704671000
C          -7.06132592047392   -8.47914367873921    0.57547208138529
C          -6.13952073147912   -9.25828565145877    1.26087826422587
C          -6.05912916601902  -10.55392122399348    0.78035307935169
C          -6.92447100245902  -10.80878963854833   -0.27843566214920
S          -7.84448390590420   -9.39355173965829   -0.68355065242309
C          -7.10796597698388  -12.03592440279873   -0.97015458310436
C          -8.08601938689070  -12.17580344794968   -1.98000721637688
C          -8.32757468000334  -13.41645836493940   -2.65529741550253
N          -9.29009913918421  -13.47643732196963   -3.59670175470955
C          -9.97967947986495  -12.42039312268857   -3.88113588481505
C          -9.73777312579180  -11.19055336064064   -3.21494083876853
N          -8.82395396129717  -11.09618614737338   -2.30511371114109
F         -10.44079799695470  -10.10089376756298   -3.50770117058313
F         -10.91791637869510  -12.52183789384741   -4.81744862288463
C          -7.59710281507656  -14.59222860105309   -2.37505675329501
C          -6.58941091109009  -14.45322881693357   -1.39053388784026
C          -6.35437124506351  -13.20357605524905   -0.69815110682220
N          -5.36527426584140  -13.31636102094737    0.18914371410710
S          -4.79142661791298  -14.81305492065874    0.16178639035092
N          -5.75852930400499  -15.40776136778118   -0.96976823549892
C          -7.88656522292336  -15.81905745114976   -3.03084342519300
C          -7.23905392712685  -17.03866682860609   -2.87284103147880
C          -7.78655653821526  -18.05799955728401   -3.63423218310979
C          -8.87288612799976  -17.64690416819368   -4.39184194518640
S          -9.19867266575932  -15.95247692359589   -4.16036361723520
C          -9.68487782485109  -18.43301680415497   -5.24051138106247
C         -10.80977306858486  -18.01920095445413   -5.94151193112200
C         -11.44157321971911  -19.04527570563522   -6.62135346824791
C         -10.81018898919653  -20.27595303852720   -6.48477523373354
S          -9.38581170420663  -20.12094233038001   -5.49212602388959
C         -11.12419746537157  -21.51869903071155   -7.07136750380503
C         -12.31266792220407  -21.94577651356610   -7.59047189757679
C         -12.31598411622773  -23.07994668598468   -8.55299447395923
O         -11.39469456491709  -23.82369663209096   -8.79968751839063
C         -13.65764560385295  -23.06035922287243   -9.17241391414511
C         -14.14249920796774  -23.82171329480590  -10.19611166079316
C         -15.46563193164559  -23.60782596441830  -10.64445766999788
C         -16.25991349874202  -22.60000397217476  -10.02449940616209
C         -17.57636990031544  -22.38732711312179  -10.48028451096411
C         -18.08219701723832  -23.14236049822636  -11.50091716483243
C         -17.29661739751559  -24.13990502256978  -12.11233773611501
C         -16.01560807693548  -24.36881561786302  -11.69428694252814
F         -17.81809840015150  -24.86442669528391  -13.11168821076629
F         -19.33443062970808  -22.94012250279115  -11.93150410812500
C         -15.73235383346850  -21.83100870286202   -8.96182497464589
C         -14.45210160328631  -22.06394546967437   -8.53705038768545
C         -13.66906765825659  -21.46682549674669   -7.45679875774564
C         -14.19865540807645  -20.80097519730829   -6.38056888872420
C         -13.46462975410003  -20.47872366846870   -5.22198985557945
N         -12.91796400623563  -20.23796180349822   -4.24168398279445
C         -15.55794331048809  -20.44569283180056   -6.26946298475415
N         -16.65018786660475  -20.11598071441860   -6.14196609511834
H          -5.96385143880304    0.53579867288730    8.60727991407765
H          -3.92970436720598   -3.96056951892085    9.06758524531737
H          -6.81127138623066   -0.04632905993556    6.40025294924215
H          -4.79651867496891   -4.58920740679552    6.81026442612066
H          -8.27835405966941   -2.85868214855550    1.87867280561767
H          -9.00128771393055   -4.29913813687402    0.11892185216159
H          -8.76462548344251   -6.71033305452659   -0.81384873324641
H          -5.55467669538448   -8.87567416878430    2.07853704253239
H          -5.40529886023056  -11.31106296576460    1.17133813777843
H          -6.39941968797810  -17.15300162713019   -2.21292772092301
H          -7.42522777308520  -19.07130088705927   -3.64014398358877
H         -11.14820250339847  -16.99863300948411   -5.92887338857365
H         -12.31188432140757  -18.90409958468971   -7.23763611063220
H         -10.29862312970558  -22.21337341756360   -7.19413773627970
H         -13.52605744770217  -24.57798489633622  -10.65767592469101
H         -18.19234755399024  -21.63044421046218  -10.02029534642504
H         -15.42751243437238  -25.13619588001604  -12.17279961145069
H         -16.35274733244557  -21.07043617485448   -8.51516982309294
