90
 SCF done       -195.618254042596          0.000753992968
C           5.43444881342345   -4.88627667993336    4.47909690957788
C           6.50299524672891   -5.69097191319064    4.76010280324987
F           7.67159007025237   -5.15297077778372    5.13197285492895
C           6.39087744100222   -7.09254757544020    4.66254948071356
F           7.45458012586622   -7.85681623118680    4.94401375103932
C           5.21129233975088   -7.67038477129957    4.28438175017967
C           4.09325077960239   -6.86775297158401    3.98609277064522
C           4.20451422764895   -5.45056679461795    4.08533600520659
C           3.09602658125295   -4.62371370511371    3.78945271760702
C           1.91316668622613   -5.19597782515479    3.40188407782187
C           1.81434567170723   -6.61200759609375    3.30286737611587
C           2.86403763780380   -7.43704583534695    3.58586560938885
C           0.45662538164288   -6.97008955727753    2.85949956800796
O           0.03096746759314   -8.09764349261973    2.68264114550234
C          -0.26096810807950   -5.70412381923830    2.67060639941304
C           0.62469455760124   -4.61232650280703    3.03170524084658
C           0.33386687234402   -3.27279994396207    3.04756866405846
C          -0.90803630161515   -2.69244666462668    2.71417291997691
N          -1.88515265127693   -2.14329685120363    2.46277484715831
C           1.25528187807727   -2.27001809432640    3.41814693694024
N           1.95602596532464   -1.40780527325736    3.70674852260045
C          -1.54259257834092   -5.57890537048613    2.19890638808578
C          -2.46975622461766   -6.55879292282463    1.81136749208656
C          -3.73049299913649   -6.21371675699267    1.31661717491063
C          -4.48802722907692   -7.32054837512102    0.98677988350313
C          -3.82125181167303   -8.53647942802142    1.23292768022453
S          -2.24022773196954   -8.30366567497087    1.86724313654949
C          -4.61439371893113   -9.63335924016471    0.88579426140672
C          -5.86470684210397   -9.26208527964351    0.37792985932019
S          -6.08950954370344   -7.53654576766744    0.32691074335814
C          -6.67091852956791  -10.34461327933576    0.01768381612070
C          -6.04912764777179  -11.55052603519765    0.25289960752708
S          -4.44107845200216  -11.34426538552977    0.92846667131824
C          -6.54118285829633  -12.88630892009796    0.02566516550628
C          -5.86489367389086  -13.99108122107296    0.55435244322218
C          -6.31598915103861  -15.27416684204194    0.35574249607213
F          -5.59310651278792  -16.26895628725769    0.90305862691081
C          -7.46813791382715  -15.56456540319292   -0.38988191777066
C          -8.13674205957920  -14.46106699698524   -0.93075668922810
C          -7.69017990939204  -13.17704402939926   -0.72468048157528
F          -8.40052313694741  -12.18244727657137   -1.28881071403150
C          -7.95474427175033  -16.90282578422571   -0.61378217435678
C          -7.58066445208716  -18.07319200325325    0.00530862037196
C          -8.28563132111514  -19.17472775143490   -0.48673513359625
C          -9.20294573544728  -18.85385777695431   -1.49358933984729
S          -9.20039064879692  -17.16568812208713   -1.82561587826638
C          -9.88398030870639  -19.97740714258986   -1.96959989997844
C          -9.47649571734842  -21.15323196027084   -1.31715745177901
S          -8.25775581836973  -20.87195817978720   -0.10732082819967
C         -10.10552817969879  -22.29880931048277   -1.78729668992413
C         -11.00708017704220  -22.01986253502066   -2.80152201031906
S         -11.08632734634848  -20.29796838135232   -3.15093122833026
C         -11.86888405936380  -22.88879873603967   -3.50478088747514
C         -11.81642761642679  -24.24479862367678   -3.63210153061263
C         -13.05284423318229  -24.97354579959411   -4.03153695337663
O         -14.06609329208476  -24.48811855569666   -4.47716222529229
C         -12.78964808101887  -26.39003084864196   -3.70620807301451
C         -13.63996415391099  -27.45611184681166   -3.76394590535478
C         -13.17384201356808  -28.72852892443138   -3.36329048747002
C         -11.83231101905383  -28.86918527725892   -2.90300138345208
C         -11.37776234195860  -30.13849571388073   -2.49270403315110
C         -12.21411796293385  -31.21822712181343   -2.54114611888979
C         -13.53952746586008  -31.07885150354253   -2.99999521895686
C         -14.01063632445611  -29.86077439247104   -3.40297552919045
F         -14.33713290186854  -32.15445990675056   -3.03620227424603
F         -11.78051428024165  -32.42361854749909   -2.15089049756410
C         -10.97134428552009  -27.74847387873999   -2.86434447824961
C         -11.44183691821651  -26.52785405712594   -3.26776128143274
C         -10.78694332286793  -25.22488985199093   -3.36658723082221
C          -9.43202322298070  -25.03325787303387   -3.45071177007990
C          -8.83642130157475  -23.80778220387818   -3.80979265911244
N          -8.31134056897952  -22.83845614502478   -4.12933915863793
C          -8.48259696583625  -26.05949844089761   -3.26833625495232
N          -7.67191240935674  -26.85568977645286   -3.10639243511830
H           5.53722873504128   -3.81531716579093    4.55936226480328
H           5.14157082169939   -8.74461918241410    4.21408844861013
H           3.21602061203448   -3.55603843482301    3.87441185574915
H           2.75803155600855   -8.50809631208177    3.50336145922151
H          -1.92559811251268   -4.57183107407758    2.08711304847607
H          -4.05329102476825   -5.19384478380043    1.21024443330563
H          -7.66002265242999  -10.23943610422129   -0.38473923813116
H          -4.96836094216951  -13.84701886846920    1.13737282396596
H          -9.02754148312530  -14.60679634245823   -1.52229809021846
H          -6.84270812710216  -18.14200742262968    0.78108411075772
H          -9.94809861798672  -23.28093048297124   -1.38070400330907
H         -12.74110933633479  -22.42526416748947   -3.95649753283592
H         -14.65472580459468  -27.33069823499193   -4.10951957294195
H         -10.36489003858188  -30.26321028613621   -2.14286336234054
H         -15.02769762085510  -29.77061412827140   -3.75100320929978
H          -9.96304140430589  -27.88174666791838   -2.50586102963400
