91
 SCF done       -188.762236477427          0.000981012935
C          -7.95657846648690    1.95755719467632    3.30743904717700
C          -8.84102543301873    2.21222673826722    4.31777771854877
F          -9.14713799811896    3.47499830989883    4.64222322001588
C          -9.44103917863461    1.15415239478271    5.02987556210432
F         -10.30522120067072    1.43345493000345    6.01468168375450
C          -9.14678716813175   -0.14472051203795    4.72247810272316
C          -8.23879669198006   -0.43936577699502    3.68703153098163
C          -7.63285209221307    0.62925003858179    2.96482453842864
C          -6.71973221735907    0.35829466975968    1.91986558565114
C          -6.41951391154534   -0.94159918590412    1.60735482102358
C          -7.02716929535445   -2.00075044126921    2.33747023700577
C          -7.91396163775458   -1.77190951189125    3.34940637717573
C          -6.53538905864116   -3.28940737785872    1.81922987949396
O          -6.85592420263890   -4.39410855531641    2.21684744104275
C          -5.59092062466116   -2.96364716127885    0.74201899468198
C          -5.53062390731355   -1.51938471741636    0.60087231218258
C          -4.79326480299517   -0.79941346256400   -0.30254574632377
C          -3.93554815390444   -1.33432243872205   -1.28691098900558
N          -3.22430751396557   -1.68530340012325   -2.11772699007670
C          -4.79290881727652    0.61027827014595   -0.37660292939388
N          -4.74560608740929    1.75127553333484   -0.49027888108310
C          -4.87619445977673   -3.87055573584861    0.00490868469201
C          -4.84539882146348   -5.27432249639824    0.05897002728029
C          -4.01932271301538   -6.01429959634958   -0.78839378906365
C          -4.13470413196230   -7.37607827161750   -0.56990502682883
C          -5.04988650744477   -7.70350001097927    0.44215496269584
S          -5.77740061733841   -6.30899384176907    1.13648813996705
C          -5.16231918071519   -9.08784271898154    0.65732836341683
C          -4.34776951841812   -9.79156962810644   -0.18001651816146
S          -3.41267137074221   -8.79316262063049   -1.26047976091729
C          -4.18096203224040  -11.28351523744391   -0.22219910608365
C          -2.84496148811143  -11.68240478492326    0.43651498472076
N          -5.22872499408882  -11.86271176695506    0.62754846293864
N          -5.93226042887402  -12.79837759817693    0.35495653729583
C          -5.91914243758333  -13.57547383258456   -0.89674000431026
C          -5.08380037294336  -12.92142181335452   -1.93148013904671
C          -4.25155958412622  -11.81132419255517   -1.60728768930539
N          -3.66461729301355  -11.42100453942734   -2.70140573572692
O          -4.09455191196929  -12.23811941441387   -3.67047479052763
N          -4.95954272892921  -13.15027981340018   -3.20746056926093
C          -7.38115815651650  -13.71771826524615   -1.34353506680648
C          -5.35776322166422  -14.91105185393428   -0.50566649841993
C          -4.53033462762082  -15.71867906965979   -1.23008713813432
C          -4.24802094421800  -16.90232617348533   -0.52935987575746
C          -4.85480150090486  -16.97517994237921    0.72767198745466
S          -5.79392666540460  -15.55906832560952    1.05034142899430
C          -4.55972200620001  -18.14311648113670    1.43036957733604
C          -3.76000335360730  -18.99846633576080    0.69888656580978
S          -3.31969358586671  -18.31074591812954   -0.86196890256467
C          -3.24279998173631  -20.23599216899754    1.15700176815038
C          -2.70891663808473  -21.26222051434143    0.44478224154435
C          -1.79817922790066  -22.23062943286163    1.11791049669144
O          -1.65177120973485  -22.38147661009718    2.30770570770260
C          -1.07526458506044  -22.90204429161324    0.01780471383437
C          -0.03332007514927  -23.78140436548978    0.08757628249160
C           0.52902689982756  -24.27625351449049   -1.11042560131541
C           0.00075000146857  -23.84603335147817   -2.36268118082247
C           0.57309251614808  -24.33781451295699   -3.55310940637960
C           1.61833928265749  -25.21671289855444   -3.50316379538449
C           2.13905083651068  -25.64258777835764   -2.26436672854322
C           1.60641670326794  -25.18355884946340   -1.09248637930881
F           3.16527458131819  -26.50324012162238   -2.24568969053978
F           2.16057981690632  -25.68304115675702   -4.63518120475777
C          -1.08502679910471  -22.94183504688832   -2.40436087628980
C          -1.61792708710110  -22.48136254815109   -1.23054034586630
C          -2.74230096498894  -21.58890657708241   -0.96634783124285
C          -3.78643435033814  -21.35252640129015   -1.81957780131565
C          -4.98739961412136  -20.73565539738282   -1.40934372631261
N          -5.99346102029428  -20.28576462725318   -1.08938013123761
C          -3.81320110904490  -21.78738152444775   -3.16011988614295
N          -3.86516699056410  -22.10896697864175   -4.26039227698741
H          -7.50657934504198    2.77930866494730    2.77252471027171
H          -9.61365974975697   -0.94348202976758    5.27723401512495
H          -6.28038618408444    1.19049354888663    1.39457742068511
H          -8.35995026962519   -2.59628154096000    3.88474080813492
H          -4.21101121846547   -3.46819159105523   -0.74966120032347
H          -3.37579517570000   -5.55875819178048   -1.51906789408918
H          -5.80307786237336   -9.54941132385720    1.38505903768130
H          -2.84416388981899  -11.34925521354509    1.47089401914955
H          -2.02627197300276  -11.21313853701237   -0.10323701082966
H          -2.72016038126075  -12.76394315299001    0.41056273773044
H          -7.78981865868601  -12.74183203699393   -1.59649927758030
H          -7.96296619542364  -14.14539750023462   -0.53179258847900
H          -7.42975392679177  -14.36286976712360   -2.21646933602366
H          -4.17130473630071  -15.49098791886490   -2.21672498852518
H          -4.93259120108242  -18.38019681234455    2.40959859162867
H          -3.18901256311308  -20.34439525208614    2.23646391043141
H           0.35774174433448  -24.09472236688043    1.04356257859404
H           0.18411372776964  -24.02499464995246   -4.50947077765999
H           2.01629974913388  -25.51913342442711   -0.15275898844085
H          -1.46270976075215  -22.62499749461667   -3.36362074329110
