112
 SCF done       -228.566013064776          0.000526917409
C         -16.71187996304350  -11.45433522169107   -3.65801568545125
C         -16.94068743917902  -12.06671638929286   -4.85813042111251
F         -18.18904372952482  -12.17360796314965   -5.33265393167430
C         -15.87150085659326  -12.59263591199764   -5.61060621718656
F         -16.12541842563239  -13.18803604240690   -6.78414278634562
C         -14.58740173712665  -12.49904889288647   -5.15195604841378
C         -14.31932062831375  -11.87374408269084   -3.91895377752022
C         -15.39927361582759  -11.34104760008908   -3.15703356133165
C         -15.15506553042478  -10.70930385877524   -1.91610723335155
C         -13.86994816926855  -10.61412290595718   -1.44963657652167
C         -12.79951013128094  -11.15031658148720   -2.21765352822368
C         -13.00254877221066  -11.76396301121043   -3.41945409433842
C         -11.52844104875979  -10.92938332919294   -1.50199489097763
O         -10.42294199240494  -11.24852868468046   -1.89060636683000
C         -11.88519554006430  -10.25227824643174   -0.24317550902960
C         -13.32016146806182  -10.03399753406465   -0.22637996678866
C         -14.05590236393721   -9.39715772348551    0.74089609944796
C         -15.45575042549095   -9.22970972702597    0.68584874927385
N         -16.59137289188840   -9.06187016946401    0.70632787212728
C         -13.54772472762783   -8.81219029042427    1.91907221762864
N         -13.21975026895906   -8.30871527649120    2.89874540219654
C         -11.02130280166554   -9.91600706564027    0.76348683017539
C          -9.63042368000401  -10.10504796853184    0.88537706298631
C          -8.96756199911263   -9.72917162140090    2.04488200385485
C          -7.59102731186179  -10.00612917656720    2.04406785807629
C          -7.21624476347989  -10.60877591585703    0.80953995962051
S          -8.54729731968603  -10.81386702500625   -0.28941987845537
C          -5.93307776429564  -11.02858144401935    0.47734553235091
O          -5.83857977812014  -11.55687824745346   -0.76823468763693
C          -4.60794242390165  -11.96961652156589   -1.30815963371137
C          -4.93497970121981  -10.86847324461160    1.45678863963468
C          -5.31370253028682  -10.26565467171102    2.68838087861005
C          -6.58164174070960   -9.81509748935863    3.01844299336732
O          -6.67108618137988   -9.26313240026175    4.25277919119833
C          -7.86661519843327   -8.69687151299916    4.73033041513310
S          -3.98821412229409  -10.15946802703147    3.81217030107841
C          -2.92749490078735  -10.92918328782733    2.65394556583763
C          -3.56327671947599  -11.22494722089517    1.47977774828214
C          -1.56491833213127  -11.22708425507627    2.98638595252233
C          -1.05077668290835  -11.02519157475895    4.26423980493831
N           0.16614155245281  -11.34943676890694    4.66920380692630
C           1.04266494582354  -11.89484895043385    3.84405730459050
C           0.68463066191489  -12.11199269546502    2.48429432136012
C          -0.64845122944149  -11.78251018721063    2.05541677502025
N          -0.83299046313359  -12.06232349885031    0.76487971518315
S           0.52780632351558  -12.66832133241611    0.15850783366497
N           1.42015236429161  -12.61537419064456    1.49572937625348
C           2.30806251238101  -12.27948179734710    4.38768755054479
C           3.37032815379085  -12.85158331212372    3.74797822173718
C           4.45576839829008  -13.16813671134218    4.59964440499655
C           4.16737673146384  -12.81254579430148    5.96104098884470
S           2.57851975766870  -12.07192861801419    6.08855098400455
C           5.03239988901541  -13.08405426568917    7.00834424466707
O           4.89921806465067  -12.80743188750447    8.32498075167054
C           3.85793282486458  -11.98171565236660    8.79607673152823
C           6.23144047420141  -13.75933070875973    6.67623610126689
C           6.52436518446823  -14.08241655605963    5.33547374732276
C           5.67920452374888  -13.78848891103291    4.27387169898738
O           6.14741843953492  -14.17781990119444    3.06165673003063
C           5.61628780985876  -13.68239245703310    1.85534614380400
S           8.05312536446403  -14.88623009620231    5.18851226249480
C           8.31503151773994  -14.76493355000689    6.92194470112591
C           7.25627653188762  -14.15257335067349    7.55321670041167
C           9.47379883061343  -15.35256057984148    7.47855770008858
C          10.02073917230529  -15.19917753416659    8.71781077370776
C          10.95373832523348  -16.24713295060829    9.21603769645470
O          11.47883233859823  -17.12016713315378    8.56502292355241
C          11.04649672700960  -16.02351462570488   10.67361941059580
C          11.66957893767238  -16.78414543847195   11.61997821071186
C          11.59198332831439  -16.39292232795743   12.97562924509426
C          10.86503314643527  -15.21754219143752   13.32324446223604
C          10.78399004184023  -14.83805818195517   14.67811004126151
C          11.39700085504336  -15.58857318582569   15.64169452155106
C          12.11632728431926  -16.75010268252216   15.29665934420668
C          12.21316574133208  -17.14475348047219   13.99177380978692
F          12.70567245326262  -17.46815066935913   16.26287985855571
F          11.31830238125998  -15.22580125038131   16.92921793287447
C          10.23744294030070  -14.44472183189186   12.31916516831118
C          10.33145575438852  -14.83971241622820   11.01171132751703
C           9.81729373003746  -14.24052472893716    9.78092254098824
C           9.44882614131380  -12.92700434667276    9.64402924130059
C           9.20564954373882  -12.30431260678095    8.40335507154351
N           9.03644255132051  -11.74266908908798    7.41696198594707
C           9.34801421104764  -12.02401112055967   10.72135281317845
N           9.22585480752809  -11.25682022783568   11.56668757875913
H         -17.54190363229588  -11.05715016115327   -3.09480995932034
H         -13.77961701523759  -12.90690914733810   -5.73918850887420
H         -15.99529072037865  -10.31891630709640   -1.36554767913971
H         -12.16958392419176  -12.16088761885261   -3.97950316451619
H         -11.45765096518759   -9.44024499866267    1.63360574387215
H          -9.51186863295381   -9.27878489046893    2.85353721122751
H          -4.20447242525556  -12.83540317777541   -0.77506503770762
H          -3.87615268862286  -11.15719111235177   -1.31299579065649
H          -4.83231926947345  -12.25698788941346   -2.33509983225943
H          -7.61056414499972   -8.26941075311018    5.69927712520809
H          -8.64240494980771   -9.45509833222595    4.86938567587372
H          -8.22688806854761   -7.90214829887758    4.07152416004825
H          -3.02527885815033  -11.69945342251028    0.68306439395103
H          -1.68098264241853  -10.58621957635410    5.02645840425854
H           3.32218801411391  -13.04780894706800    2.69535913443832
H           4.07975535615357  -11.81895025670225    9.85013286454483
H           2.88280060453036  -12.46572248759142    8.70271222515967
H           3.84108692819226  -11.02060914899814    8.27794022471576
H           6.37903765405607  -13.88675497399634    1.10361576021342
H           5.43593269254465  -12.60598121112855    1.90348637427614
H           4.69748777408679  -14.20657971821227    1.57612595025177
H           7.17579929451084  -14.03069318160286    8.61778037100974
H           9.96414495991819  -16.09835997748543    6.85981344172890
H          12.21239872978830  -17.67375795745647   11.33910740398880
H          10.24025093115587  -13.94972056945421   14.95924031421042
H          12.76719583325749  -18.03651234528503   13.74375542092462
H           9.68763326723433  -13.56431563101000   12.61149873581976
