83
 SCF done       -180.690145393576          0.000867699373
C          -6.86568988654754    1.50860169907783    6.84030545922668
C          -7.44231482040748    1.57023023238885    8.07769607421611
F          -7.69454776115796    2.75697125966247    8.64477602116260
C          -7.77871428486819    0.39054805220183    8.77233229755052
F          -8.34189814519202    0.48183606742635    9.98447005394683
C          -7.53544057671704   -0.83499133483319    8.21861388198407
C          -6.94351472722607   -0.93133291463680    6.94416345203522
C          -6.60002212757425    0.26019725173531    6.24185186384614
C          -6.00054303847925    0.18908397110376    4.96376933232795
C          -5.75325825784442   -1.03674684981575    4.40202183170903
C          -6.10872030203753   -2.21779553753285    5.10685096469701
C          -6.68502885430201   -2.18295074260359    6.34396875429552
C          -5.76460667319966   -3.40138372407425    4.29697198823127
O          -5.93775390251323   -4.55380106477058    4.63490853008009
C          -5.18807218003701   -2.87599176103081    3.03621215793549
C          -5.15547582557507   -1.42188764825452    3.12609334477050
C          -4.64501282875802   -0.53758210270479    2.21181012672880
C          -4.64496297438738    0.86401744491671    2.38546786406031
N          -4.60682960795384    2.00905331659756    2.45651781168233
C          -4.03239625480300   -0.84893930463194    0.97842050631646
N          -3.52148487114868   -0.99151948199185   -0.04054531013790
C          -4.76594501825218   -3.57109382898316    1.93456623038166
C          -4.72479467204690   -4.94995860962020    1.64589987310414
C          -5.07754768162371   -6.07722338760519    2.37154245500880
C          -4.86216257716492   -7.24641389479003    1.65365595167726
C          -4.33609624858444   -7.04351304148657    0.36125926455391
S          -4.10805060278096   -5.37092013433156    0.03984813986264
C          -4.12742452745390   -8.22280204130663   -0.35145596729854
C          -4.49478724438970   -9.32259129266804    0.39551028222910
S          -5.09909553801839   -8.92659892281599    1.98409539725591
C          -4.44796450234014  -10.70200088957418    0.02967137752958
N          -4.87220538803259  -11.57098375354573    0.93432713104627
N          -4.89591929307652  -12.84765531833457    0.73503352563041
C          -4.50130758347310  -13.41399718716086   -0.39548168224311
C          -4.01642872617817  -12.59351850560685   -1.45356060067163
C          -3.98611014535525  -11.17797111304161   -1.23071406652565
N          -3.51388297816505  -10.51632827727754   -2.28310287807171
S          -3.14464496374478  -11.57495008151161   -3.43616637371504
N          -3.56651742522228  -12.91958005425758   -2.66153709108520
C          -4.60218446924231  -14.83569472328817   -0.46649233286033
C          -4.30786050787620  -15.67132173033522   -1.52284629678607
C          -4.56439384653725  -17.00129136028137   -1.19316765575537
C          -5.04414739450545  -17.17627788926463    0.11817352163736
S          -5.19209255920352  -15.67068527998863    0.94900365072879
C          -5.28182865808922  -18.50350750909930    0.45630374826007
C          -5.00311739760549  -19.36532835446979   -0.59127843951835
S          -4.44976078558019  -18.50624011935907   -2.02032862573271
C          -5.18909273920957  -20.76525140916773   -0.66084346831958
C          -5.31326437754666  -21.66070855840966    0.35758855307589
C          -5.97080077645409  -22.97199470349432    0.09205138513986
O          -6.21154701602285  -23.45462148302454   -0.98901019022070
C          -6.31470062332448  -23.50697606370252    1.42543749636470
C          -7.05224899105733  -24.61079650590748    1.74328945864374
C          -7.28971650798956  -24.90958031145983    3.10391274247169
C          -6.75573959105467  -24.05488370347227    4.11188763729855
C          -7.00443090862161  -24.35345819832228    5.46660359810453
C          -7.74784507955877  -25.44908764846945    5.80509887085065
C          -8.27551562089393  -26.29384741184279    4.80759971383468
C          -8.05104449286666  -26.03167259186773    3.48512269420494
F          -9.00302876419896  -27.35893225157107    5.16844671842398
F          -7.98407487618475  -25.73065804698410    7.09258221378854
C          -5.98762158335266  -22.92378143050661    3.75271651517155
C          -5.76753619394302  -22.65645286728711    2.42820134677964
C          -5.01558372501042  -21.58953306625669    1.77193926438911
C          -4.02705787290977  -20.84509698292363    2.36037104235013
C          -3.16003220977539  -19.99383569532456    1.64570614439231
N          -2.41199168946327  -19.31904078041718    1.09622407251033
C          -3.71007490128460  -20.91068816845734    3.73285713514654
N          -3.43091308414135  -20.91841676097475    4.84604350098011
H          -6.61363957084024    2.42103295791422    6.32273403965254
H          -7.79903972125226   -1.72855057178637    8.76248080000200
H          -5.75480588433272    1.11081258862202    4.46268865374920
H          -6.94049876041945   -3.09893211101346    6.85474924956236
H          -4.39826142195767   -2.96889415172115    1.11208442586014
H          -5.47083119767091   -6.03091154113930    3.37011812022425
H          -3.73606418373581   -8.29372088094418   -1.34926728841586
H          -3.93381916881755  -15.31745250737643   -2.46549544247771
H          -5.68362670669243  -18.82201378599221    1.40060275962114
H          -5.33211787772783  -21.17825983305642   -1.65479287997060
H          -7.45259093720824  -25.24571034218848    0.96771633612992
H          -6.60509983387751  -23.71913918493384    6.24251281473011
H          -8.46196031841655  -26.68791541052192    2.73402071781182
H          -5.60303415687436  -22.28844011417422    4.53466570289641
