92
 SCF done       -207.096698381211          0.000938079633
C          -7.59996897988178   -1.18377896235517   -7.14519195760560
C          -6.75615421520995   -1.06158371171424   -8.21354745240473
F          -7.06317181817848   -0.23711548309146   -9.22299577824434
C          -5.55623549635469   -1.79892333671462   -8.26799041496149
F          -4.74816378288969   -1.65943813706768   -9.32715054626778
C          -5.21710019224499   -2.64933955421193   -7.25301325405682
C          -6.06615472471859   -2.79746343889249   -6.13930055935297
C          -7.27902886888330   -2.05156177652531   -6.08220777030862
C          -8.14801198279693   -2.18393473283776   -4.97441388772922
C          -7.81611809455821   -3.03873006160106   -3.95683686381346
C          -6.60539890225867   -3.78381784641659   -4.02649844051329
C          -5.74382430585634   -3.67392069407544   -5.07935129050371
C          -6.49746295962840   -4.63860048778431   -2.83242486257145
O          -5.57166280305866   -5.38152373871720   -2.55628638767764
C          -7.72383768082522   -4.41785526110429   -2.05838641390701
C          -8.50475082322266   -3.38560438566076   -2.71505687068549
C          -9.65734692332320   -2.80030663631737   -2.26081768255736
C         -10.30271116899125   -3.09510691104630   -1.04116408966540
N         -10.88282623245235   -3.27283267284108   -0.06588428910203
C         -10.35256710050331   -1.78663281209240   -2.95432432532174
N         -10.96130772497557   -0.96004345922480   -3.46790162679307
C          -8.09702099927867   -5.13103458193681   -0.94868212505657
C          -7.42813163038721   -6.16713803763004   -0.27777520549105
C          -8.00817096060987   -6.85181616981182    0.78880605123820
C          -7.20532598327148   -7.85322971087550    1.30397841570906
Cl         -7.68585050220631   -8.86560929895515    2.60436613909102
C          -5.96853279612319   -7.96017889489426    0.66237274508670
S          -5.83362064394175   -6.79139150534818   -0.61383813576743
C          -4.94149128465793   -8.89427226525991    0.93919444639160
C          -3.68489881633319   -8.99025503133871    0.35422356456612
Cl         -3.13072851565412   -7.91252525042649   -0.85321599036909
C          -2.90978103824368  -10.05062605372262    0.83347400980882
C          -3.56028810906168  -10.79883157773403    1.78685119109601
S          -5.14276829390982  -10.16363325666719    2.11539790556188
C          -3.07036256641251  -11.96807134056743    2.44161230206343
C          -3.75931764156493  -12.87522902830262    3.21239666453084
C          -5.24068468000235  -12.80018517881834    3.43673638424921
O          -6.03186988282977  -13.34890855849607    2.73099765845197
O          -5.62363070396818  -12.06223483212876    4.49297158236945
C          -2.95029061070640  -13.96521599345619    3.65000684997809
C          -1.65348057188261  -13.83580790647204    3.21440945453490
S          -1.39816305676778  -12.43589922161078    2.27257429806106
C          -3.42745770294516  -15.07847832239424    4.43068951617427
C          -2.84153646927433  -16.31351908786944    4.56067556242212
C          -3.58190589489248  -17.18123460347939    5.37166540946431
Cl         -3.09496775600461  -18.79318508729485    5.68467391162737
C          -4.74531212010437  -16.62772685282826    5.88359558828627
S          -4.90249231931661  -14.98565967046175    5.33679681135580
C          -5.73184209231267  -17.24174421930292    6.69420630599441
C          -6.92081919318311  -16.69610352905130    7.16570597758347
Cl         -7.39848013468187  -15.08298426812271    6.84130769070313
C          -7.68827406013866  -17.57704886229229    7.92657026073012
C          -7.12958548556351  -18.83496535317073    8.03002890680752
S          -5.58914950695825  -18.88894499259854    7.21454955312083
C          -7.65190479600147  -19.92498640334867    8.76713128674669
C          -7.33190974464222  -21.24436728538589    8.69066055699203
C          -7.62887702489716  -22.13951407195026    9.84381803177677
O          -8.35969751089688  -21.90270975051381   10.77652221053217
C          -6.78729732985400  -23.33473826219045    9.62700573978177
C          -6.58980011443230  -24.40514576227609   10.45093895805453
C          -5.71030857322802  -25.43298073118051   10.04291610491646
C          -5.04497461690970  -25.32784402604441    8.78661931284180
C          -4.16408320866784  -26.35402897100174    8.38978784701856
C          -3.95638196853030  -27.43501105978056    9.19955500105806
C          -4.61645169002052  -27.53912538741436   10.44063061929912
C          -5.47516725074352  -26.55989083004173   10.85468137719602
F          -4.39294050970639  -28.60985020537699   11.21418869249132
F          -3.11965889827533  -28.40960057646546    8.82019599674512
C          -5.27450923600599  -24.21121572805145    7.95081583215885
C          -6.13870209325382  -23.23269677938875    8.36269852582426
C          -6.60168125124282  -22.01466059274250    7.70430364493284
C          -6.59599608896971  -21.79708094027894    6.35255482469236
C          -7.33587847802357  -20.76645687828601    5.73472391093653
N          -7.97169589415375  -19.97539466976128    5.19936178840873
C          -5.93015973988309  -22.62762436971539    5.42904986379824
N          -5.38793610813337  -23.26497352281310    4.64351741032837
H          -8.51429914593453   -0.61176256231597   -7.11932767610656
H          -4.29575012516648   -3.20753992857207   -7.30993026767147
H          -9.05867918346163   -1.60754558022293   -4.96467358300099
H          -4.83209116801701   -4.25105585027949   -5.10499771624715
H          -9.06553847293322   -4.90367224154785   -0.51982237881123
H          -8.98946411415106   -6.62440793415924    1.16441561359058
H          -1.91817861140322  -10.26596886363060    0.47989287481687
H          -4.88183752669877  -11.67460277359688    4.97628460265188
H          -0.83341983886311  -14.49589513221864    3.41156259221309
H          -1.92986510151417  -16.60526598494665    4.07451791232790
H          -8.63787815089835  -17.31448753070801    8.35517291351617
H          -8.34841632808199  -19.66262145720601    9.55804873745446
H          -7.09829987792597  -24.46789435392372   11.40091625943949
H          -3.65419833892721  -26.29203884164082    7.44111681861247
H          -5.97263196166902  -26.65431918450661   11.80719843380262
H          -4.75443312871070  -24.15112233471056    7.00796838958872
