91
 SCF done       -188.099984070829          0.000825041461
C         -15.64231688968139   -6.92135260733999    8.63807863880353
C         -15.97433469205984   -5.85062568113505    9.41971450675036
F         -17.17100100243914   -5.79966456339414   10.01924718549610
C         -15.06639532306419   -4.78859193424812    9.60517183365465
F         -15.41904859472060   -3.75114445261914   10.37636874844833
C         -13.83842450691277   -4.81215572513497    9.00577538382061
C         -13.46714134739247   -5.90121367580978    8.19350652269833
C         -14.38364864498536   -6.97649082565663    8.00606120272216
C         -14.03204595220515   -8.08156756405761    7.19749052687288
C         -12.80334446576525   -8.10680168086527    6.59196457808740
C         -11.90011648300872   -7.02464778688839    6.77520136341362
C         -12.20766052659024   -5.94799665411849    7.55605708993245
C         -10.66462838157534   -7.27195454324504    6.00512102535235
O          -9.68013295024340   -6.56357155585744    6.00944889615881
C         -10.91094251087423   -8.52517207757081    5.25131236704212
C         -12.16531752871532   -9.09113898651832    5.72431437435307
C         -12.63296384494600  -10.35598162204455    5.48553024631797
C         -11.94011770039915  -11.36429359364901    4.77981057005610
N         -11.42425686951463  -12.24781632223032    4.25915387094072
C         -13.85886626537106  -10.84494515075756    5.98504936994779
N         -14.84899544334640  -11.28929532439908    6.35893930719266
C         -10.22690429725660   -9.02004110716204    4.17324476109311
C          -9.02325958407476   -8.60537089718743    3.56912082522315
C          -8.02593367391178   -7.72589363241437    3.97329828333657
C          -6.98354502212301   -7.59822761846171    3.06741792002702
C          -5.80529929457801   -6.71318406921257    3.27415312920531
C          -7.17302283180372   -8.39445467046177    1.92802112523110
S          -8.64090029721045   -9.31356039362127    2.01492165486806
C          -6.37203974886333   -8.50839863880386    0.77977271803844
C          -6.69171468621246   -9.29968386432145   -0.33400590530337
C          -5.71402578469252   -9.22461213873947   -1.37554529308638
N          -5.86807444210296   -9.88127259725082   -2.52323382268059
C          -6.95833296358758  -10.60399297014914   -2.65874910496469
C          -7.13335283857931  -11.32543770978769   -3.94413830251514
O          -6.29470286452851  -11.30568092218858   -4.82250386004393
C          -8.39313166968409  -12.07319653259376   -4.06942127434480
C          -9.31256538298226  -12.14196181075337   -3.10078218783781
C          -9.18106337811374  -11.47454249959027   -1.79260537967096
O         -10.03178654055568  -11.55431081367585   -0.93414244545747
C          -7.93573764515319  -10.68330984412819   -1.61525177766908
N          -7.79186202347543  -10.03715970521143   -0.47781147118398
C          -4.64717864142506   -8.36710081722794   -1.08001322469300
S          -4.86594214193460   -7.67940222139919    0.49536460922874
C          -3.63944346220121   -8.05132680992377   -2.00667706719043
C          -2.68406872824924   -7.04654236417214   -1.99745704370699
C          -1.96960828393116   -6.94670183051830   -3.18883673535959
C          -0.94139578251366   -5.90530067069855   -3.46252254597917
C          -2.39002990550678   -7.88415210085426   -4.13442043721275
S          -3.62595209422151   -8.93179268540957   -3.49938031562992
C          -1.92007642084315   -8.05512037712495   -5.45796708880356
C          -2.57169218335576   -8.68312356107558   -6.47500131787202
C          -1.80909146285358   -9.21845563807863   -7.63644520006130
O          -0.68178904912697   -8.92635258732215   -7.96141324064079
C          -2.70225801428863  -10.22858513787028   -8.24340824721678
C          -2.44124870935664  -11.12301371748082   -9.24153216090116
C          -3.44672510393949  -12.04199980439617   -9.61883909017242
C          -4.70219362528294  -12.02782072915788   -8.94263785701909
C          -5.68987480164061  -12.96232207440806   -9.31337420285513
C          -5.44713370584224  -13.86388411769864  -10.31093213823011
C          -4.20778718310978  -13.87427244142007  -10.98160758994773
C          -3.22795360464782  -12.98352091630339  -10.64368413791814
F          -3.99646941294989  -14.76997940813135  -11.95629821470631
F          -6.38924489938761  -14.75034909759582  -10.66230026067484
C          -4.94941239544496  -11.08470678661104   -7.91975127528592
C          -3.96716191080015  -10.19181930417451   -7.58896142344961
C          -3.95351801395487   -9.10634691100038   -6.61733480200751
C          -5.06167903200946   -8.44213787001335   -6.16708612335266
C          -4.99505668963954   -7.23419609585531   -5.44148977281661
N          -4.97888254835548   -6.22452007082796   -4.89485365299226
C          -6.38727130114815   -8.84540894088793   -6.42297948755950
N          -7.49073091564187   -9.11653176333951   -6.58566796260946
H         -16.34842618092719   -7.72656207823962    8.50800253799568
H         -13.15491698618324   -3.99137256552490    9.15711215856011
H         -14.74901942462854   -8.87649953009760    7.07156912046197
H         -11.50083708795193   -5.14193070510866    7.68194883308616
H         -10.69752813302785   -9.84463736470187    3.64883553094522
H          -8.07130567209377   -7.19137246305003    4.90404042977019
H          -5.74296668698795   -5.96435242646131    2.48421542725238
H          -4.88013819933167   -7.28957557901687    3.25711386524882
H          -5.88773710441914   -6.20620782692574    4.23113842909687
H          -8.53574827188434  -12.57748168070401   -5.01537877375026
H         -10.22618109490305  -12.70560820802415   -3.23306580011237
H          -2.54503067641855   -6.39237428339239   -1.15453841490680
H          -0.64976037207538   -5.40968842076067   -2.54083162017323
H          -1.34318801144146   -5.15794919043970   -4.14609294261993
H          -0.05950581980460   -6.34283779555274   -3.92662573814743
H          -0.90893955974795   -7.72522006244905   -5.67420180098315
H          -1.48081920564185  -11.13474846216242   -9.73407652265297
H          -6.64450472333375  -12.96377224809615   -8.81137725560930
H          -2.28436423992705  -13.00606668745040  -11.16612754039817
H          -5.89099763778323  -11.10274081260260   -7.39509911669930
