99
 SCF done       -226.131072334810          0.000902618208
C          -4.87050558115162    0.14404107207944   -4.93548649321350
C          -3.98003154254871    0.25898433269150   -5.96620049436984
F          -4.10691127430754    1.24936489188997   -6.85811847649229
C          -2.92037276415103   -0.65998534628949   -6.10484717070004
F          -2.06310377219618   -0.52364685629913   -7.12486365384524
C          -2.76613374377946   -1.68199401327327   -5.21036707306931
C          -3.66826964459045   -1.82768749598066   -4.13887217052956
C          -4.73978445971946   -0.89896480098638   -3.99681122099079
C          -5.65961316508330   -1.02632147493568   -2.93012967978527
C          -5.51537419616488   -2.05353131917399   -2.03523277216521
C          -4.44446441803108   -2.97814581433624   -2.18922713618246
C          -3.53741052419416   -2.87872534618647   -3.20435871333114
C          -4.52395117028948   -3.98900303371900   -1.12234321347726
O          -3.75058216563384   -4.91350340134188   -0.94447314108442
C          -5.71595423652428   -3.65892425143321   -0.33136991140410
C          -6.29955459092616   -2.44078115717351   -0.86371944092767
C          -7.37319127143460   -1.74738487863025   -0.36939301719486
C          -8.12271938954978   -2.09386701472543    0.77491146319133
N          -8.77788144020116   -2.30234016686197    1.69484579445211
C          -7.87505729116137   -0.55869102819944   -0.94169638799004
N          -8.33193712111536    0.40775897375303   -1.35946013600439
C          -6.21691812740603   -4.41420447372242    0.69765484977959
C          -5.74432940246232   -5.61813013419728    1.24499572324944
C          -6.43683983400602   -6.29324698934256    2.25135769149387
C          -5.83573833159844   -7.47429618853461    2.64282046132404
Cl         -6.49423436259099   -8.50320524695303    3.84859274350187
C          -4.64127989814438   -7.74388461120189    1.95885732784219
S          -4.29777632489716   -6.48546218006916    0.80735363266565
C          -3.80723801700627   -8.86914516604903    2.11282546119588
C          -2.59577482558955   -9.13007638774534    1.46560842814830
Cl         -1.88294271696219   -8.05702149284628    0.33816495296204
C          -2.01782337141949  -10.34322202423354    1.81323152953399
C          -2.77212935899887  -11.05663193113255    2.73167430492633
S          -4.21059667575250  -10.19347580010647    3.17872166935435
C          -2.49163753631097  -12.33928371000350    3.26393563503807
C          -3.39701100814412  -12.96019715414569    4.15794327217975
C          -3.20973750309190  -14.28783950244884    4.68941496744350
N          -4.13464958007586  -14.79171788545865    5.51926535141528
C          -5.18601960140788  -14.07746969027446    5.83884095651220
C          -5.37050123960891  -12.75798984229824    5.31369195603149
N          -4.47852302072841  -12.25300718300694    4.49867398597291
C          -6.50599038614270  -11.98502454103980    5.66037997225667
N          -7.43386472018471  -11.38223554289511    5.95564134222973
C          -6.15038585676557  -14.63431251874322    6.71736066505035
N          -6.94557056788452  -15.06179003302444    7.42165881651031
C          -2.07052962784628  -15.05690204782514    4.34603492529056
C          -1.14683090744472  -14.41767608561048    3.48848513054832
C          -1.34127624832762  -13.09476807404625    2.94743650948932
N          -0.32765566049791  -12.73682563059267    2.15760732151201
S           0.75010538047211  -13.92232796832934    2.10157127798267
N          -0.00369053501585  -14.95824543848972    3.06767493773963
C          -1.82888163372859  -16.38590959174552    4.78772525494057
C          -2.62929068991169  -17.20671326731076    5.56441813199356
C          -2.07768428393333  -18.46520656822081    5.76810882868903
Cl         -2.86267619952921  -19.67914704451555    6.68702582194322
C          -0.83133805089092  -18.64801000149298    5.16755002097379
S          -0.36190568048083  -17.19837635295647    4.32486185944710
C          -0.01798869502905  -19.80075634987098    5.19575142096942
C           1.27186005547565  -19.96297300611042    4.68864976501285
Cl          2.12393967653466  -18.70820131904581    3.89781713997363
C           1.80235688950783  -21.23450961051744    4.87717370045540
C           0.94735383446979  -22.08919489407948    5.55126954093488
S          -0.55366317085283  -21.28427918452985    5.91892166156086
C           1.18627789002724  -23.46023788969418    5.79853055157821
C           0.47436799207544  -24.34754545316577    6.54493709017463
C           0.60062789817347  -25.80420432853067    6.25321264176468
O           1.47864201926160  -26.34373625808425    5.62282061847030
C          -0.61281560447134  -26.41437170079978    6.83445793251969
C          -1.06187258276534  -27.69912482622905    6.72744278427215
C          -2.28715218493970  -28.05118300392398    7.33670004715824
C          -3.02781601654202  -27.06035956031054    8.04527148546466
C          -4.25572664070103  -27.41671281009875    8.63820734916623
C          -4.72475735704533  -28.69628297082675    8.53565039276033
C          -3.98983140122655  -29.67605808678679    7.83779674247816
C          -2.79620697216624  -29.36176947963461    7.25101550169055
F          -4.47408408614721  -30.92197660582081    7.75267759808174
F          -5.89202275097098  -29.03269246593655    9.09856863298153
C          -2.53141768798700  -25.74079707568883    8.15128671360534
C          -1.33867096068394  -25.42500135523911    7.55879020881580
C          -0.57401208212519  -24.18141616208339    7.52994196537082
C          -0.65730571127914  -23.17813155746886    8.45762104993730
C           0.31590069521892  -22.16358895092692    8.57810814964480
N           1.11579337563673  -21.35652613208984    8.73876333625250
C          -1.65897377116271  -23.11105561342435    9.44699969064091
N          -2.46821373712576  -23.00930514232868   10.25423036507426
H          -5.67551838616011    0.85642741730507   -4.84424583359139
H          -1.95034402919097   -2.37756595270350   -5.33021658331245
H          -6.45917125620653   -0.30766331903990   -2.85411436050654
H          -2.73473446602159   -3.59462236434112   -3.29487673419415
H          -7.13160072971798   -4.06742488711167    1.16297653931026
H          -7.35594029342081   -5.92756156644042    2.67247245883483
H          -1.08863894703116  -10.70687727648798    1.41620135154260
H          -3.57740397225742  -16.89770532384127    5.96144714390361
H           2.78581732724271  -21.51940018473009    4.55115793692624
H           2.00168712061454  -23.89441481372414    5.22721105271996
H          -0.49216615562722  -28.43662461538521    6.18292261323835
H          -4.82891970240878  -26.68011181370621    9.17917980110615
H          -2.24615517570249  -30.12285300218975    6.72007273693223
H          -3.11233007975546  -25.00695407352568    8.68719512674359
