91
 SCF done       -196.825555329234          0.000695253622
C         -15.15184471985965   -2.42356985743565    9.74739464064290
C         -14.78330175781757   -1.15586681585708   10.10136867025663
F         -15.59653320324717   -0.40370266886987   10.85366774302908
C         -13.54759089244851   -0.62397478912046    9.68105794498700
F         -13.21234571544617    0.62138570406029   10.04302167977943
C         -12.69753901129945   -1.36747298253483    8.91113871463814
C         -13.04994365485551   -2.67612608551736    8.52837262249253
C         -14.29831642327412   -3.21597881007288    8.95374486201358
C         -14.67442545699714   -4.52719483195707    8.58102384054278
C         -13.83016564475670   -5.27465404443898    7.80272350853238
C         -12.58830682858808   -4.72407347576108    7.37987432365655
C         -12.19440847054438   -3.46427566305661    7.72721323166962
C         -11.88040313452694   -5.71149815056946    6.54749577409745
O         -10.78367302133777   -5.56932870983572    6.03893926335709
C         -12.76501203487487   -6.88181588295013    6.45845130100913
C         -13.94734003615509   -6.62782551426114    7.26209505173972
C         -14.99124700988653   -7.48290084741434    7.50232516178468
C         -15.11319135721781   -8.79973154008131    7.01036483053731
N         -15.29162292632303   -9.87833052589944    6.65798219151327
C         -16.10752255547282   -7.15947893246776    8.30330990686371
N         -17.04161781478367   -6.96320364474694    8.94095663422975
C         -12.53431914912970   -8.00283135775159    5.70350252666863
C         -11.45604339476797   -8.33354138670229    4.86621528859078
C         -11.45364420679840   -9.51432768863085    4.11630355327526
C         -10.32332870431315   -9.64012401026636    3.33290437636810
C          -9.42533480111144   -8.56045083559385    3.48084663253742
S         -10.00494931395520   -7.37729968224122    4.59438486857269
C          -8.29730812977722   -8.67035338123057    2.67812259368148
C          -8.32965619554760   -9.82261206087006    1.90658930291029
S          -9.75753328469685  -10.80363969588351    2.17930257926856
C          -7.39312288177216  -10.22982597210084    0.94008816947364
C          -7.50887580611817  -11.35213298212864    0.11089376462764
C          -6.43912279653224  -11.47269065190401   -0.84056901503317
N          -6.42039340020013  -12.47864889698245   -1.71849378145843
C          -7.41035031549117  -13.34247280786716   -1.66019190230616
C          -7.38266142841805  -14.45314509671949   -2.64729583905345
O          -6.52323476817942  -14.54617356794150   -3.49723785144833
C          -8.47930589044690  -15.42817058606916   -2.51895379567158
C          -9.46374663440700  -15.32188226526821   -1.62074828873039
C          -9.57324949622032  -14.21703828280900   -0.65054990533326
O         -10.49584795873282  -14.12776955684918    0.12979672726754
C          -8.46901318156386  -13.22478079412923   -0.70442003664838
N          -8.50594295310182  -12.23466330737491    0.16000204662216
C          -5.49272942536850  -10.44420415198435   -0.72410317102452
S          -5.94600013182235   -9.35741723074127    0.55309575371804
C          -4.34902453759056  -10.24764263895241   -1.52254767238344
C          -3.98370288908852  -10.99970536317042   -2.62853827130755
C          -2.82539000923072  -10.50366448297111   -3.21448486154493
C          -2.28199013187903   -9.37892676794985   -2.56537779543663
S          -3.23447680432264   -8.92822203196456   -1.19789174364231
C          -1.14670015771481   -8.86723511879732   -3.17691394155256
C          -0.78106662836556   -9.60153257551173   -4.29579735939397
S          -1.89526533515705  -10.92985600904052   -4.59945560612941
C           0.26248452680218   -9.24386610503489   -5.17869462070157
C           0.79479419089368   -9.92352065140270   -6.23049324490395
C           1.48156438102686   -9.16058371711388   -7.31094369168909
O           1.88092932920884   -8.02161828164247   -7.25289053936144
C           1.49467104502622  -10.07436484775480   -8.47164638822565
C           1.87698907005812   -9.82121619421791   -9.75739806288565
C           1.76282872290420  -10.84738255289968  -10.72190529287033
C           1.25074523760216  -12.12006028755586  -10.33414876527112
C           1.13033624612299  -13.13425562569981  -11.30533438830990
C           1.50299638684906  -12.89758786071117  -12.59876047590257
C           2.01108008340571  -11.63942469457428  -12.98046716500387
C           2.13922085326650  -10.63507969663810  -12.06256330338397
F           2.36704301164926  -11.43525716150683  -14.25567180116917
F           1.38758225056908  -13.86254189877009  -13.52002069929461
C           0.87326638341139  -12.35712378097181   -8.99226353138839
C           0.99848894577293  -11.34958395262414   -8.07451869844228
C           0.72436148001568  -11.30927378738599   -6.64078401067121
C           0.70289705412259  -12.39245305235835   -5.80332178065744
C           0.75145838476419  -12.26785646544987   -4.39871918509067
N           0.84913387110976  -12.18687623148991   -3.25810585761948
C           0.74725204095272  -13.72686645584412   -6.25479869726063
N           0.77141111881592  -14.82505150840337   -6.58668457350599
H         -16.10105597891634   -2.81512538591040   10.07835941899364
H         -11.75544798560274   -0.94625884838475    8.59693909696664
H         -15.62598392546944   -4.90332270977014    8.91957676683527
H         -11.24531554128593   -3.07444287951115    7.39213821828301
H         -13.30340833817111   -8.76583608608411    5.71693101742063
H         -12.25824772739034  -10.22624236482557    4.15334647620557
H          -7.49456969526023   -7.95682394474114    2.63451146874236
H          -8.44201257690073  -16.25228368894608   -3.21859346571030
H         -10.25509548071760  -16.05720731485745   -1.56440605592176
H          -4.55110053572476  -11.84861367368826   -2.96355849534328
H          -0.59429695155405   -8.01297318376174   -2.83109931479189
H           0.62344114837167   -8.22513068224920   -5.06737029734818
H           2.25813740188833   -8.85069376829857  -10.03631106209733
H           0.74654812270196  -14.10403501204373  -11.02966624881046
H           2.52928991339316   -9.67757011479743  -12.37035969829020
H           0.48156594792753  -13.32553622472212   -8.72390229416007
