117
 SCF done       -229.393849828761          0.000620449852
C          -3.95057690127894    1.28983283109003   -4.93429199917997
C          -4.57707145278921    1.48028447463726   -6.13364207214217
F          -4.58223654978901    2.69119587166833   -6.70613799335167
C          -5.22490005203824    0.40996504453319   -6.78302935947808
F          -5.83124306298351    0.62604510355024   -7.95825751395012
C          -5.23796654409540   -0.83634283124702   -6.22281361814270
C          -4.60226944964659   -1.06439212710619   -4.98676791124897
C          -3.94444748527657    0.01614894203592   -4.33014849053301
C          -3.29566184621725   -0.19028363545190   -3.09164152982210
C          -3.30582419622440   -1.43924394623321   -2.52722970137412
C          -3.97357913229425   -2.50806129342006   -3.18405920626953
C          -4.60620291516268   -2.34049212870033   -4.38212956751281
C          -3.86047086033188   -3.74085038051264   -2.37761402718891
O          -4.30486786322171   -4.82512102330831   -2.68811507913397
C          -3.15437872656700   -3.33675563362559   -1.13377231433286
C          -2.73456871194156   -1.94996275919417   -1.28691722221735
C          -1.88356343831875   -1.26327076485563   -0.46356785537094
C          -1.25150223391600   -1.79403696639687    0.68215464401472
N          -0.68410355070079   -2.15405362226505    1.61307179278831
C          -1.48927655687454    0.07438192145404   -0.67990903092269
N          -1.13895528640215    1.16062029521388   -0.80126062172696
C          -3.10123680223498   -4.01882025208733    0.04487138574834
C          -3.45760089759893   -5.37798696350615    0.33031686383631
C          -3.35804323266339   -6.39947272936674   -0.61712099959374
C          -3.76671419579334   -7.66996900104706   -0.25759071433099
C          -4.24132161518737   -7.95377796215382    1.05200487981371
C          -4.29153802758352   -6.93672441416802    2.00495428152862
C          -3.89446846762075   -5.67433686330476    1.64393055912769
C          -4.55934470612578   -9.34301785334169    1.06981018956699
C          -4.26943268211876   -9.83653741563549   -0.23058909543065
N          -3.80234257462472   -8.81342877046639   -1.01292672955100
C          -3.41978136670471   -8.91144577032774   -2.39387194579240
C          -4.47217271199519  -11.16728214169877   -0.55390237762788
C          -4.96577885136804  -12.02197768455442    0.42893356584307
C          -5.26061978835439  -11.52736683072534    1.71482051753261
C          -5.05914916906103  -10.20833315352135    2.04039232728354
C          -5.17089326878893  -13.43472529837362    0.13961071775811
C          -4.29226807329155  -14.17336121446201   -0.67464220753531
C          -4.49806460710476  -15.57787260950449   -0.95977979730333
N          -3.67139149694016  -16.20575440265510   -1.81837096052539
C          -2.65490762210676  -15.56530982088708   -2.32583551182145
C          -2.38126925331533  -14.20428151571280   -1.94429338268360
N          -3.19746056949384  -13.55649292486006   -1.15906332359665
C          -1.23054513993743  -13.53859863377146   -2.43505600263288
N          -0.30659216093622  -13.01272195345552   -2.86201119009144
C          -1.80591446915290  -16.21995464120521   -3.25297554333884
N          -1.08504422062002  -16.70648141348172   -3.99847965200615
C          -5.57131389567313  -16.30350553514283   -0.41228133904484
C          -6.45527665493800  -15.56300719668659    0.39026694311718
C          -6.25074276773196  -14.15724040063673    0.67253045909372
N          -7.21688834675344  -13.67084830194272    1.46186541563894
S          -8.24306250423899  -14.84117391302289    1.82029060589085
N          -7.55080140897830  -16.03036381526762    1.00405334855941
C          -5.76331218218618  -17.72869085762986   -0.64551180062178
C          -7.05509842784217  -18.23164202388944   -0.78652206636414
C          -7.21657976242462  -19.59362984039096   -0.96617959612064
C          -6.09852175236033  -20.46682148346063   -1.01231572319143
C          -4.81322709137070  -19.95029481834121   -0.87450691737389
C          -4.65623904424091  -18.59690802264338   -0.69301762008682
C          -6.62252552134418  -21.78099611796538   -1.19658200035050
C          -8.03621684425572  -21.64433503482449   -1.25291558180708
N          -8.37073907617416  -20.32327847105541   -1.10662555332652
C          -9.70097925173883  -19.78408571587266   -1.13209577179978
C          -8.85305013162578  -22.74925381073418   -1.40798854742525
C          -8.25608263218261  -24.00164474269328   -1.55771078924045
C          -6.85376508106012  -24.13218686120979   -1.49040264259425
C          -6.04108350212528  -23.04118663729606   -1.30170307795302
C          -9.09610196899703  -25.15940696874331   -1.72371028694574
C          -8.82304779746092  -26.30590571111892   -2.39073251328419
C          -9.61329850842514  -27.53758576999245   -2.11233595985771
O         -10.66186218893614  -27.60738385678155   -1.51524763786004
C          -8.80628997221418  -28.64551119538255   -2.66477820577070
C          -9.01243703281530  -29.99100623895619   -2.56016218064845
C          -8.08138120438182  -30.87645278876647   -3.14749706949653
C          -6.94727671380161  -30.34781702053860   -3.83041512098507
C          -6.01820900808312  -31.23766786670057   -4.40661182294938
C          -6.20787202467277  -32.58760124207995   -4.31262420856867
C          -7.33075837396831  -33.10926687231107   -3.63873587191964
C          -8.24853670843404  -32.27292044119755   -3.06805110643354
F          -7.49030327923381  -34.43716251943387   -3.56113245067542
F          -5.32459545574311  -33.43153969143637   -4.86149525790534
C          -6.76341595088348  -28.95000681191660   -3.92929109880927
C          -7.68355868833894  -28.11062513315057   -3.35968604053726
C          -7.76979551038158  -26.65372788404352   -3.32736365727996
C          -7.15233032674805  -25.79930354660260   -4.19959932187160
C          -7.47175281974913  -24.42857058890481   -4.30574076909938
N          -7.74577933274402  -23.32838752413144   -4.48209492583166
C          -6.19770390668186  -26.21242272633313   -5.15151118620181
N          -5.40496084081291  -26.50769630570829   -5.92704332815403
H          -3.45786825235503    2.11949207383216   -4.45184718940610
H          -5.73843867643238   -1.64521600989567   -6.73173254440350
H          -2.81239199208752    0.64810480404447   -2.61673059485251
H          -5.10412896765135   -3.17055584583238   -4.85995327030175
H          -2.81196363689571   -3.44724421997283    0.92004895375153
H          -2.94615457491257   -6.20102604896595   -1.59031446487427
H          -4.63219251154122   -7.14491314393334    3.00750864058093
H          -3.93258952391928   -4.87257940765141    2.36627527116722
H          -4.02130326223909   -9.67332430953952   -2.88769954827914
H          -2.36367148657728   -9.17803592065570   -2.49461305779580
H          -3.59703345792576   -7.95593077815085   -2.88572975887171
H          -4.26966563155330  -11.53723145510187   -1.54510670979560
H          -5.63329583088856  -12.21198062360304    2.45891775606022
H          -5.27868429397657   -9.84620425634291    3.03295121739817
H          -7.89774195612592  -17.56051608775935   -0.77132616982729
H          -3.95567744849309  -20.60442388948400   -0.90228447169234
H          -3.66765462350761  -18.18908666825246   -0.56033913066086
H         -10.40236936655309  -20.51623580124639   -0.73411986810740
H         -10.00231929811728  -19.52468487747447   -2.15152614171096
H          -9.74293735860739  -18.88978986930757   -0.51145419825869
H          -9.92710401753474  -22.66047831977178   -1.46428152321542
H          -6.42015339354100  -25.11971998008064   -1.54786806645594
H          -4.97000164820375  -23.15512201663083   -1.23787904922026
H         -10.04565595052003  -25.14681154602511   -1.19708201008095
H          -9.87389684170900  -30.37497617139129   -2.03525902928329
H          -5.15534953985171  -30.85500558975582   -4.92899102002998
H          -9.10229953398091  -32.68768791891625   -2.55543073695339
H          -5.89314064485908  -28.57549895457914   -4.44455818590981
