90
 SCF done       -191.641108655979          0.000366156137
C          -3.76124754991849    1.65411417471956    6.80798724061223
C          -3.26669401356260    1.81423422624541    8.07188715293213
F          -3.44258623437077    2.97177657139265    8.72222485700508
C          -2.56851632841550    0.76754669261781    8.70724247837473
F          -2.09598574206258    0.95214919130020    9.94728877890792
C          -2.37476937033251   -0.42546242070305    8.06931445883400
C          -2.87420908289162   -0.62206572483053    6.76717398599455
C          -3.57941834772514    0.43577452101088    6.12291577100810
C          -4.09149650085621    0.26078925461771    4.81684609402939
C          -3.90933028699733   -0.93812345063064    4.17925363324664
C          -3.21283802195643   -1.99067271319123    4.83321241259617
C          -2.69841590272017   -1.84881065506179    6.08956207597574
C          -3.17676858475494   -3.18073576210363    3.95955326065471
O          -2.59858809118600   -4.21812339869353    4.20435583193593
C          -3.99862609140070   -2.82807631076973    2.77724489057639
C          -4.32479142055509   -1.41313705269168    2.86385957645098
C          -4.85145401408595   -0.63294985359165    1.86915784314364
C          -5.14466621914968   -1.07033035863105    0.55921784010314
N          -5.38543014795919   -1.34423203898062   -0.52941041818610
C          -5.12215739672941    0.74445474287990    2.01345191905033
N          -5.36695877476068    1.86411880991019    2.07493869320122
C          -4.55299866625916   -3.67262596155842    1.85428871207168
C          -4.37256438705180   -5.05540754852026    1.65038858961081
C          -3.40584020033971   -5.94383328676913    2.09566256695092
C          -3.66027493459050   -7.23771755350897    1.66312988707746
C          -4.81976850500102   -7.37501878103083    0.87960595028709
S          -5.58633079100724   -5.85511490046088    0.64185027687658
C          -5.10631113491807   -8.68759570166930    0.50995635438261
C          -4.16677559138509   -9.57908771270013    0.99280989523040
S          -2.89924777157491   -8.76722855850895    1.90966527213559
C          -4.17375614605532  -11.00369045513027    0.91536529540585
C          -3.25247095384282  -11.76099163243190    1.56852452743842
C          -3.35461495766765  -13.16687309690300    1.70627651149678
C          -4.30288589952374  -13.89009595442230    1.05536641719780
C          -5.11239663803850  -13.20227328825619   -0.02192758210403
C          -5.33748246470833  -11.69224104061141    0.21457091670251
N          -5.64568730414585  -10.98814489564597   -1.00994225778452
C          -5.19305463048467  -11.42392922705216   -2.09948272644536
C          -4.43931126483078  -12.68729776832098   -2.19574966478659
N          -4.40906541823257  -13.51379195924947   -1.25016095779380
F          -3.78617846294587  -12.94722092218994   -3.32045539384392
F          -5.44567829828810  -10.75608001689831   -3.21732906821297
C          -4.51339369440012  -15.28270727133922    1.27162574281067
C          -3.73450538611564  -16.15313934705861    2.01129247498775
C          -4.30692304437492  -17.41898153725457    2.10513554244963
C          -5.54049053068776  -17.53731706985718    1.44483045038844
S          -5.96212711535013  -16.06438738583674    0.65471710701862
C          -6.16441589584761  -18.76517892444436    1.62492837388165
C          -5.40837138052794  -19.61595967481152    2.41411454184757
S          -3.88390496538717  -18.88610388595610    2.89775921139212
C          -5.69420574520710  -20.93470572180244    2.83332393529325
C          -6.90503610648812  -21.54412752302703    2.97011070618245
C          -6.96144531089568  -23.03123114633894    3.03653068292749
O          -6.02522810154971  -23.78362589482380    3.17192093378629
C          -8.38538546703860  -23.37562845356028    2.85079240753072
C          -8.96219746897659  -24.60735564781038    2.73500780092980
C         -10.35945159160476  -24.69636380299597    2.54436021285821
C         -11.13180572538206  -23.50114984577188    2.46544240453228
C         -12.52420575676005  -23.59599285710436    2.26923063117786
C         -13.12260958087765  -24.81993518294640    2.16232336964841
C         -12.35835470709824  -26.00159629293607    2.24342896736431
C         -11.00559034766604  -25.94262139965898    2.42970623580169
F         -12.97173549555229  -27.18729421232897    2.13526115305826
F         -14.44606339558075  -24.90831642946972    1.97899190511731
C         -10.50702254047749  -22.23962091239959    2.59325365097424
C          -9.15399510718665  -22.17814672998599    2.79419275897899
C          -8.26114698293801  -21.04178369996263    3.01363591170476
C          -8.66711721614555  -19.80473972430895    3.44362974333809
C          -7.79918840349060  -18.80308322715921    3.92215448807916
N          -7.15029255387690  -17.96587224843887    4.36478538299393
C         -10.01807397545001  -19.41304322420260    3.54455617114253
N         -11.09862188279146  -19.03418143991624    3.62366981889992
H          -4.29207945731321    2.46599363331552    6.33584532688118
H          -1.83897675732290   -1.21716129253423    8.56918790443146
H          -4.62536147705661    1.07745632774215    4.35854500361038
H          -2.17131796560752   -2.66392985265197    6.56166481132720
H          -5.30545738843423   -3.24178713345678    1.20286479980140
H          -2.57714635651826   -5.65291203570866    2.71267060219622
H          -5.95408132912414   -8.98346612932269   -0.07708989415672
H          -2.44309413307795  -11.26540467198643    2.08486320206518
H          -2.68790256980242  -13.64617383064564    2.40475862668676
H          -6.09250270432890  -13.69223321793382   -0.10987774430492
H          -6.21809260138353  -11.55780222369121    0.85894830891397
H          -2.79660715248181  -15.88578562911159    2.45919959162031
H          -7.10391993434004  -19.04197094476275    1.18205750214854
H          -4.83679141900729  -21.56990983284606    3.03507745289172
H          -8.36119888314709  -25.50204954082377    2.79170269546355
H         -13.12431219360889  -22.70145759699135    2.20967068835949
H         -10.43499201293163  -26.85611380477153    2.48968021126353
H         -11.11506764431291  -21.35191969271495    2.52277629603820
