89
 SCF done       -198.764273702788          0.000834268941
C           0.51494976265682    1.52280670026857   -3.51627842798326
C           1.11148955771390    1.65631931882142   -4.73853154604241
F           1.66188953269171    2.82416298709431   -5.09522377668638
C           1.15697711219601    0.57139641394794   -5.63731616194671
F           1.75031547553986    0.73078205003882   -6.82795445652079
C           0.60397180734681   -0.63239916523340   -5.30133125725645
C          -0.01750254807894   -0.80174084807320   -4.04874199486908
C          -0.06394092415082    0.29425449919288   -3.13883428274659
C          -0.68150900190314    0.14783918116296   -1.87569974762811
C          -1.23318581593016   -1.05869588421599   -1.53270071435839
C          -1.17601016170435   -2.14778232288964   -2.44400411283765
C          -0.59121673710930   -2.03629220396995   -3.67246613988701
C          -1.81448214376334   -3.33445418499270   -1.84053993752086
O          -1.96117384297890   -4.40805710663823   -2.38492626031665
C          -2.19261685811859   -2.92819918778046   -0.46584530135960
C          -1.92368933609102   -1.50535087806768   -0.32688550574987
C          -2.31105331049622   -0.68988330304520    0.70427666032346
C          -3.07481793066602   -1.07889224551812    1.82599495941543
N          -3.71094038798529   -1.30138372445698    2.75602186424221
C          -2.03145049527477    0.69248057666932    0.76058843310530
N          -1.83241782282784    1.81755286911618    0.86880623761159
C          -2.59030431307680   -3.72292300831930    0.57647284134763
C          -2.92770251077194   -5.08869415094288    0.63421533837609
C          -3.14004199387573   -6.04717192616891   -0.34823657375494
C          -3.49455490058555   -7.27491871691265    0.19078836878380
C          -3.56084072682264   -7.28836640739552    1.59919027128946
S          -3.19020987899221   -5.74308411706447    2.25729923159285
C          -3.90423357312631   -8.52163889163194    2.13400389981075
C          -4.11566060414100   -9.47189034843209    1.14443156343902
S          -3.89080338449622   -8.82680267263461   -0.46813729884226
C          -4.47011257419084  -10.83575530747640    1.34740120106952
C          -4.71965560996386  -11.70743693454466    0.26492859599550
C          -5.07802430219971  -13.08279331655204    0.44705883138400
N          -5.30004258192080  -13.85439679249563   -0.63603730201220
C          -5.19310672826398  -13.34806889046462   -1.82001392986457
C          -4.84331764420147  -11.98149996555604   -2.00077880738210
N          -4.61880066132464  -11.21387387612477   -0.98599965425289
F          -4.73668906376544  -11.45978185735533   -3.21599730713247
F          -5.41394504641739  -14.14043690233754   -2.86144768803817
C          -5.20423732948905  -13.67545470220467    1.72262442366665
C          -4.94930696641384  -12.81153834543856    2.81409588942156
C          -4.59477543336141  -11.42018911412926    2.63046942158593
N          -4.40643930743310  -10.80808859042404    3.80140650451877
S          -4.64597956079089  -11.84893492993559    4.99425159161415
N          -4.99936733054106  -13.13448110949088    4.10794208013960
C          -5.56946818715557  -15.04167434978371    1.87905232314957
C          -5.68391298051046  -15.73376216309064    3.07627970913664
C          -6.07541154282921  -17.04992330236834    2.87541840279582
C          -6.27588181482252  -17.38256225934161    1.52235810203778
S          -5.94460799473423  -16.03777806982528    0.48709575602735
C          -6.71018950712221  -18.68605785029906    1.32690684575547
C          -6.83853459086559  -19.37932943997439    2.52208979966099
S          -6.38454451461636  -18.39523319678076    3.90512702483702
C          -7.20830683486822  -20.72488024743172    2.73915875329139
C          -7.89764679457753  -21.57048058769087    1.92221485488476
C          -7.79286064139017  -23.03941410119729    2.14962806694598
O          -7.32842090873811  -23.58881574555956    3.12068264959083
C          -8.32262009395387  -23.66071799151099    0.91878576283220
C          -8.34686733615831  -24.97867671107896    0.56401389762644
C          -8.88493061270655  -25.34243692976649   -0.69096411004576
C          -9.38291412130440  -24.32781693741767   -1.55940591380499
C          -9.91234778673676  -24.69641481047087   -2.81242789859688
C          -9.94943636641706  -26.01084024222761   -3.18457716121256
C          -9.45780324701037  -27.01373651817337   -2.32456839074405
C          -8.93646480253632  -26.68811247930038   -1.10379905677842
F          -9.50525312835757  -28.29383571810980   -2.71613460160631
F         -10.45470368110058  -26.35968924725495   -4.37444606196485
C          -9.35038458954441  -22.97150760005192   -1.16218155603931
C          -8.83490484133247  -22.64405100202646    0.06309314952300
C          -8.71038099338376  -21.35746431140991    0.74488987732207
C          -9.44867284672742  -20.23986782481893    0.45321002001791
C          -9.51372459089110  -19.10467276996772    1.28602565292757
N          -9.63138860496275  -18.17674195163404    1.95111295878886
C         -10.29786868152456  -20.13188023898330   -0.66702139692213
N         -10.98564477154230  -19.98830568707150   -1.57437532074750
H           0.48777299526949    2.36377011395989   -2.84100481280589
H           0.64693835157325   -1.45317116907834   -6.00008615701755
H          -0.69466622413995    0.99444688427824   -1.20874641694643
H          -0.56497431577722   -2.87977868559510   -4.34554859572114
H          -2.63861813971044   -3.23996615412496    1.54612882936465
H          -3.03017761163753   -5.84306256422413   -1.39699854734818
H          -4.00221182216643   -8.74086610790868    3.18000634499583
H          -5.49056279465922  -15.27981503464133    4.02941135062881
H          -6.88492932073480  -19.12698941497885    0.36239682198416
H          -6.84164850744733  -21.17626411087479    3.65641743517740
H          -7.96136649087906  -25.73420819819800    1.23149394848450
H         -10.29605348617393  -23.94131360054554   -3.48063449934359
H          -8.56445116207472  -27.46790530202804   -0.45781612345158
H          -9.72625796812696  -22.22333903861999   -1.84175174355275
