121
 SCF done       -240.475657872683          0.000802774143
C          -3.00837915790287    0.88906060758646   -0.56174434689337
C          -1.99821401471859    1.62114173945514   -0.00309768864575
F          -1.89586401657021    2.93203404524316   -0.25889392525988
C          -1.05461170056995    1.01044224079660    0.84687107994542
F          -0.07534011584365    1.75276673419072    1.38104133840383
C          -1.13466174204048   -0.32498177214676    1.12701165927640
C          -2.16490519489560   -1.10537961935301    0.56788807214959
C          -3.11945830140254   -0.48976069719041   -0.29248562078035
C          -4.16450306253470   -1.25284547935521   -0.86394394091494
C          -4.25477084992770   -2.58998386352205   -0.58042431251304
C          -3.29818577327950   -3.19308804234297    0.28286159006614
C          -2.27586740915768   -2.48588480464638    0.84573060537603
C          -3.62336593053173   -4.62079821434968    0.43897461179241
O          -2.99432188092691   -5.43255453084169    1.09514782739902
C          -4.84454537834818   -4.85200887554969   -0.33977707490235
C          -5.20994809034587   -3.61428184066358   -1.00188344609860
C          -6.24338711354487   -3.41236977250706   -1.88004091607686
C          -7.16090066386428   -4.39163535933543   -2.31486795567098
N          -7.94432489167442   -5.12577767848078   -2.72313222863235
C          -6.52905441260110   -2.17209600990873   -2.48904790363961
N          -6.81370623686032   -1.19394595460208   -3.01817935370328
C          -5.55323310208600   -6.02804957932678   -0.37405770385579
C          -5.30175757190065   -7.24894520108188    0.26839477629100
C          -6.20189313728795   -8.31803008981200    0.22181565494454
C          -5.81383936212015   -9.43557980785923    0.94293886801950
C          -6.65459792884986  -10.61993632145191    1.15292630237968
C          -7.18795778428681  -11.30434053102666    0.05091345523988
C          -7.98465895749273  -12.42650190081556    0.26151251118135
C          -8.23729400590700  -12.85643636225743    1.54807986695550
C          -7.72534242030517  -12.18734339378448    2.64614381407968
C          -6.93679796286207  -11.06174761557750    2.45294724479489
O          -6.38477363319692  -10.32603063445827    3.46648976088425
C          -6.57932042401308  -10.75132255440340    4.79311278753979
O          -6.86901331053176  -10.80766652113324   -1.16443810204683
C          -7.14748029188408  -11.59671599385124   -2.30156399091646
C          -4.55774174859371   -9.24089494406828    1.53418737885682
S          -3.91408891438649   -7.66280279426905    1.23825175908222
C          -3.85008608665343  -10.16014299976174    2.33793094594864
C          -3.92715138483236  -11.55884445280883    2.33635734439606
C          -3.19858124525916  -12.16364828772338    3.42217783008991
N          -3.26745323038011  -13.47783265864385    3.63979547112232
C          -3.96054421380234  -14.19547637242095    2.78240557491808
C          -4.06898417430508  -15.64828144032760    3.05630692199009
O          -3.55834662758227  -16.17524681298408    4.02364255479196
C          -4.83680547049932  -16.41184172227198    2.05774611136485
C          -5.34804716558980  -15.87122077013772    0.94686301651434
C          -5.21045850964654  -14.44865005322962    0.59086721850739
O          -5.62293380466793  -14.00810593357952   -0.46304710191576
C          -4.55200512271542  -13.60922550260807    1.61790759916142
N          -4.53692351229560  -12.30998319188568    1.41864431945964
C          -2.49114010871551  -11.22717236938445    4.19052183983981
S          -2.78037193447063   -9.62841074306771    3.58891563946390
C          -1.66355400291879  -11.47884533692117    5.30340970250548
C          -1.40617345620962  -12.70366525305220    5.89460823847966
C          -0.52653866723501  -12.62920490338158    6.97572928729129
C          -0.13517664608984  -13.78924822864956    7.78331548100264
C           0.37142976790964  -14.92315594134690    7.10874435649490
C           0.88991651528442  -15.99143231808238    7.83289205042996
C           0.92016519062889  -15.93934753981138    9.21477247280212
C           0.38730456952816  -14.86084193093018    9.88808222223499
C          -0.16819768004246  -13.79510997339986    9.18233945903319
O          -0.69315754833411  -12.79766245273008    9.95553057603708
C          -1.90720073354266  -12.18355636769541    9.57134716580354
O           0.35433568230973  -14.85766661292202    5.75881028819006
C           0.90777817518214  -15.91697451241051    5.01186097186232
C          -0.07431804820909  -11.32341347078079    7.21370462266621
S          -0.82322528051168  -10.19612136617765    6.11565208458135
C           0.78806490987116  -10.79547521128917    8.19979199399336
C           1.77089390395823  -11.39418962834840    8.93170774510859
C           2.17636264002739  -10.78197859343720   10.22545852265017
O           1.89710382654797   -9.67601086707084   10.62525408907798
C           2.94117622267291  -11.83605486660186   10.92391842751995
C           3.43449514356148  -11.83733645835904   12.19601054641669
C           4.12605663577277  -12.97812562484288   12.66242637073927
C           4.28985264569369  -14.09982958119521   11.79830199214870
C           4.97646022798848  -15.23486827417118   12.27422421150786
C           5.48002770419897  -15.25433129610277   13.54456530301157
C           5.31938447389316  -14.14392237588356   14.39689469645717
C           4.65644474397337  -13.02906383566153   13.96616130149499
F           5.82316888171346  -14.19067788963359   15.63823175773477
F           6.13373593224241  -16.33499034472917   13.99305891140961
C           3.77300687435560  -14.06644011724098   10.48287716399175
C           3.11105630585070  -12.94901279319716   10.05270844663998
C           2.50002572167690  -12.62646954042686    8.76750784012450
C           2.77416920224086  -13.23882235971643    7.57134636733489
C           2.37362780112808  -12.69866279049386    6.33269594087818
N           2.10660064843610  -12.25467710826890    5.30879926962953
C           3.56102459460990  -14.39805861041241    7.43690736990146
N           4.18359926356414  -15.34741515438290    7.26225192151672
H          -3.72178920229471    1.37287972832079   -1.21046563147884
H          -0.40519253346904   -0.77824098290151    1.77981992066245
H          -4.86961862723682   -0.75418913425469   -1.50872278651439
H          -1.56516135542302   -2.97247058213609    1.49620932892195
H          -6.46751498448408   -6.03466016531095   -0.95518157975559
H          -7.13237518092722   -8.25672832114771   -0.31383888482339
H          -8.39598485886740  -12.97313243182279   -0.56981767987488
H          -8.84882923009483  -13.73266660592139    1.70499125564554
H          -7.94575517732597  -12.54877322745362    3.63742794956396
H          -7.63806992647827  -10.74624653444671    5.06866990259864
H          -6.04452381315224  -10.03153021621242    5.41168606077543
H          -6.16394233085393  -11.75115286336444    4.96217329251373
H          -6.68046455360267  -11.07855462643392   -3.13750684132599
H          -8.22441335581884  -11.67327802347838   -2.48287376664517
H          -6.71427901872162  -12.59389638894181   -2.19531658023809
H          -4.95097352310992  -17.46553300691939    2.27465056550940
H          -5.88877431382819  -16.47236321446652    0.22808482553470
H          -1.85695594707898  -13.61272544511899    5.54078804682550
H           1.28489515510085  -16.85569961544959    7.32633921151620
H           1.34373541059839  -16.76275432410990    9.76844448201142
H           0.37249907825371  -14.81954048310625   10.96517901406226
H          -2.51963757136658  -12.11625843547781   10.47272638078169
H          -2.43656607576868  -12.76975138752086    8.81825666467162
H          -1.73149580802424  -11.17438054663407    9.19002585550828
H           0.81528218809367  -15.61091962375029    3.97160699114990
H           0.35203270475119  -16.84617608656056    5.16735174020506
H           1.96405915984661  -16.06995925683094    5.25264966882651
H           0.60348659312940   -9.75827653366801    8.46942822948130
H           3.30023634457036  -10.98069424529276   12.83874995119709
H           5.11244448947611  -16.09201773340895   11.63347134520445
H           4.54167862145561  -12.18683408110203   14.63042575462312
H           3.89974058603530  -14.92976137099716    9.84900040454088
