85
 SCF done       -181.615127893236          0.000776525121
C          -1.23838029521442  -10.97685762458612  -11.97658761308513
C          -0.44135280153265  -12.07928126044383  -12.11197920330895
F           0.00173931638113  -12.44492873914451  -13.32186301535847
C          -0.07493593082348  -12.84227128046853  -10.98541747279922
F           0.70840208478586  -13.91712931151847  -11.14737041582884
C          -0.51023345794890  -12.49147923283154   -9.73802540328607
C          -1.32921935942855  -11.35897636414880   -9.56581497885212
C          -1.70205859127651  -10.58725674501019  -10.70434420059581
C          -2.51947844582352   -9.44193111780267  -10.55584801942510
C          -2.94122841829753   -9.07448474541658   -9.30596343254964
C          -2.55548687170604   -9.84806138849840   -8.17436226040857
C          -1.77894919402511  -10.96465609070467   -8.28580038490914
C          -3.10228156724250   -9.22064356417805   -6.96138030447047
O          -2.99248994603598   -9.63353296133277   -5.81658769757348
C          -3.78016455594530   -8.00150774474255   -7.39479955268845
C          -3.75077816970252   -7.94709971322924   -8.84329565741602
C          -4.37291663802106   -7.03349220212529   -9.65371296697501
C          -5.17988369063456   -5.96449943304997   -9.21035003194831
N          -5.85021974062298   -5.07513166681851   -8.92935754449404
C          -4.30286503924204   -7.05326761786948  -11.06281414267738
N          -4.28220072663741   -7.01436575733142  -12.20993154981153
C          -4.23773602507238   -7.02041377228915   -6.54742359945931
C          -4.18453338898482   -6.94304018074189   -5.14753671648701
C          -4.52289315758683   -5.73698380060749   -4.51057170191317
C          -4.33189617166291   -5.69107562192076   -3.14882892169216
C          -3.88503113756713   -6.88960569474719   -2.59399563925295
Se         -3.64652542567946   -8.24445883934004   -3.87801515991846
C          -3.49846995423804   -7.12722961115455   -1.27016725982587
C          -3.15679278128888   -8.40111093797707   -0.80337366773583
C          -2.66048574789988   -8.39023093940784    0.53396340055229
N          -2.24280872502794   -9.49700199601059    1.13182250878460
C          -2.31513339274508  -10.61188578069573    0.43616878887897
C          -1.81852253855853  -11.83539005379937    1.10990630786798
O          -1.36005373800198  -11.80249027506361    2.23288856976648
C          -1.92303628814078  -13.06417618321229    0.30892382812117
C          -2.41806825863156  -13.09072689548909   -0.93419669100712
C          -2.92215200746269  -11.90524515543410   -1.65459632055648
O          -3.38976909179111  -11.97226437296936   -2.76958384182166
C          -2.82800634550619  -10.62854347484769   -0.90068563080789
N          -3.23441641453144   -9.52940477200125   -1.50433601836501
C          -2.58874059687773   -7.11611919581472    1.10695951973028
S          -3.20884913591658   -5.94290337893247   -0.01665431225089
C          -1.93678361993519   -6.91323265961362    2.33110914154067
C          -1.65731204121920   -5.71836984748486    2.98161043311058
C          -0.78444395256388   -5.83321651359049    4.05323486969478
C          -0.37502928813179   -7.12552116010602    4.34706006691817
Se         -1.13107296436038   -8.38988617665433    3.17380943281068
C           0.60512911410701   -7.49783103154047    5.30178301547027
C           1.75003479242414   -6.81261042256052    5.57696991322606
C           2.50841627086276   -7.06275866882131    6.83178213202162
O           2.33955235341219   -7.96799518230355    7.61423183543540
C           3.46494272802401   -5.93924721942684    6.93482114169168
C           4.33988091112865   -5.64713200065569    7.94089377808235
C           5.16339459525155   -4.50429319392715    7.82600580678536
C           5.05441978350967   -3.67607564520954    6.67110295921293
C           5.87582978236842   -2.53579670127079    6.56409405855153
C           6.76864368156084   -2.23525034175918    7.55399143938265
C           6.87846910906557   -3.05674112485111    8.69419934333441
C           6.09282685829634   -4.16710083159718    8.82908749348857
F           7.76262997495410   -2.73802578136508    9.64840510800965
F           7.55098306643577   -1.15354627625162    7.44916548187548
C           4.14210864802932   -4.00520641680336    5.64320854518970
C           3.36592446953696   -5.12634165342087    5.76904079463928
C           2.40567542495411   -5.74060465150151    4.85749530817169
C           2.34382170877014   -5.51194972092924    3.50556332627345
C           1.65371787765873   -6.35710206769916    2.61629567016449
N           1.16739391525874   -7.06999832924307    1.85654252560016
C           3.03635369787567   -4.47571296454086    2.84855496671379
N           3.55652726977900   -3.63039142645618    2.27185762335014
H          -1.50934978633328  -10.40451693103060  -12.85001921908002
H          -0.22065104549238  -13.08471825361607   -8.88487246216510
H          -2.78034441657257   -8.87942943271919  -11.43761181597785
H          -1.50649488010235  -11.53207416373278   -7.40915511633291
H          -4.63826111234886   -6.12683912085362   -7.01442665800833
H          -4.87536018610717   -4.89021984001315   -5.07726522749641
H          -4.51396739209878   -4.81492016280580   -2.54768874535456
H          -1.56775234904103  -13.96425132511018    0.79208188547873
H          -2.47907850061549  -14.01638512075625   -1.49072756757409
H          -2.06190083930644   -4.77881146238528    2.64236814087934
H          -0.47075409904282   -4.98666339541666    4.64314820653585
H           0.43079605679822   -8.39687870326878    5.88678170862077
H           4.40808076375116   -6.28284830045073    8.81044896538757
H           5.80743910174452   -1.89959310481687    5.69549331850040
H           6.18966249714458   -4.78532909706246    9.70776056689218
H           4.07578438274700   -3.35966808260298    4.78187621441507
