97
 SCF done       -225.553827617735          0.000516308554
C           2.16763422310177    1.46665057569415   -2.68014502826193
C           3.44491561916293    1.95265095915053   -2.67602532222389
F           3.67344036966511    3.24791572270633   -2.92820165533585
C           4.53594771854954    1.10158374342424   -2.40712676200061
F           5.77716333838498    1.60571870756802   -2.40986353630087
C           4.33403282706548   -0.22436586860029   -2.14487008186949
C           3.02938584904105   -0.75490548898303   -2.14099352685832
C           1.92526676899992    0.10363015195725   -2.41483006385166
C           0.60708540013201   -0.40726796148739   -2.42109322900779
C           0.39901376458108   -1.73630726883760   -2.15902512293456
C           1.50573060096800   -2.58105005374785   -1.87508061094819
C           2.79033784417888   -2.11937439099029   -1.86710777817932
C           1.02850224873717   -3.94997126511880   -1.60158861348465
O           1.73826438289809   -4.90630440841452   -1.37207692808480
C          -0.45154984102195   -3.87928143213266   -1.66354877454986
C          -0.81863566739075   -2.53995827146292   -2.10122375029591
C          -2.06337272610363   -2.10009412927161   -2.46859925308569
C          -3.24241842941368   -2.87527288589525   -2.51501495754014
N          -4.24417441285429   -3.43033791227564   -2.60121117434972
C          -2.33427510841655   -0.78503211642772   -2.90492682180331
N          -2.62158894300085    0.26669402130136   -3.26363818419216
C          -1.36664999654505   -4.82559866521234   -1.28646054414854
C          -1.20718126583289   -6.15040352153242   -0.83487649191727
C          -0.10881593640845   -6.98592858100905   -0.71648015713340
C          -0.43157163054155   -8.23559942637548   -0.20646633547576
Cl          0.74106024236444   -9.45614649444898    0.04403645985733
C          -1.78844722722499   -8.41554093610526    0.08664566998069
S          -2.66231604105925   -6.97294560598918   -0.30848791383031
C          -2.41017994147299   -9.55669364093199    0.63839169512992
C          -3.76033551993292   -9.73720947024905    0.94213316263508
Cl         -4.95234898419689   -8.54431247718538    0.64629790859029
C          -4.05721175146037  -10.96970197438611    1.51209729299872
C          -2.94293790551901  -11.77689935611534    1.66269549174197
S          -1.51215141905429  -10.98523460085192    1.07189414349391
C          -2.84288110047426  -13.07886597081960    2.22820662618419
C          -3.91868773085857  -13.80463993276295    2.79168068695282
C          -3.71839745536638  -15.09735925938069    3.38493178627972
N          -4.76684501081978  -15.75185459776526    3.92363908239533
C          -5.94288728525916  -15.21608163246630    3.89903507632044
C          -6.14029387768740  -13.93905196370300    3.30940349674617
N          -5.16148227245136  -13.27692709665187    2.78608249521264
F          -7.34675941650063  -13.38086608508334    3.27962553644287
F          -6.95021872171838  -15.89055703872233    4.43925249718897
C          -2.46112588578096  -15.73960739137246    3.44942737668000
C          -1.38863411104486  -15.02972391014922    2.86423311769283
C          -1.58970708810592  -13.73030207582321    2.27341523330710
N          -0.45428994428531  -13.22857973106886    1.78754220294629
S           0.73765878509681  -14.27103484451755    2.03885967712969
N          -0.11229026874322  -15.41081926729026    2.77816294932508
C          -2.30614746661061  -17.00148998074267    4.08256281346219
C          -1.13256568157608  -17.72376087781569    4.21994730920003
C          -1.30730392688776  -18.90838093727947    4.92253292386416
Cl         -0.01755137412993  -19.99133990462684    5.23691452782271
C          -2.61833836562566  -19.13461111248042    5.34168006132219
S          -3.64360298802390  -17.82057068239119    4.82454030515059
C          -3.10781341888301  -20.23325898255639    6.07949597738481
C          -4.42273839125403  -20.50264749535585    6.46173647876545
Cl         -5.73452857113694  -19.48294955240354    6.05489435642903
C          -4.56962708088269  -21.66618020698881    7.21128556787258
C          -3.38037632874252  -22.34509301621770    7.40621399551874
S          -2.05758598684481  -21.48355238055924    6.66881064445163
C          -3.20380846496255  -23.50437297354333    8.19656492364486
C          -2.12602309061102  -24.33044730821412    8.28620225320530
C          -1.93909654321870  -25.15638091891240    9.51257045496338
O          -2.76996770398305  -25.40458593178238   10.35374711388768
C          -0.51068725376670  -25.53538014767326    9.50247060922904
C           0.21345523939239  -26.17605571856105   10.46623937288765
C           1.59082929326146  -26.40665572615183   10.25088292848944
C           2.19394692398697  -25.96461221486598    9.03720924224354
C           3.56966116344732  -26.19307291162702    8.83305905872606
C           4.31110945822064  -26.83171797648073    9.78698475425198
C           3.71374796299374  -27.26868747230569   10.98658580341375
C           2.38222298266126  -27.06162865283989   11.21469910792815
F           4.46557497498631  -27.88979424523206   11.90498477803323
F           5.61804772669874  -27.04830046079233    9.59062942552115
C           1.41735885407366  -25.31052641532946    8.05350777746769
C           0.08359625528248  -25.10390269632969    8.28169949256110
C          -0.95547423358770  -24.50215521414646    7.45109201633087
C          -0.91591633754827  -24.39646875215929    6.08646017643273
C          -2.05291311370804  -24.10112325694846    5.30477786104968
N          -2.97048446833630  -23.92121519588803    4.63953066417959
C           0.23233534125223  -24.66258004226371    5.31408507588244
N           1.14785569995472  -24.84908332396399    4.64768759963033
H           1.34435255069528    2.13159794657201   -2.88967041174432
H           5.17910814169216   -0.86292970567347   -1.94045930746278
H          -0.20467470220488    0.27071477628645   -2.62795117624899
H           3.61092500976036   -2.78683801570977   -1.65212472925017
H          -2.40512739710724   -4.51508110289295   -1.30287330277004
H           0.88847756472441   -6.68987459289523   -0.98590517866524
H          -5.04287360482698  -11.27064978833078    1.81017327301678
H          -0.19255941810678  -17.38941677444814    3.82318659084075
H          -5.51632945164326  -22.01630171721190    7.57967836464726
H          -4.00228138866147  -23.71038537182929    8.90335909629659
H          -0.25706781592471  -26.50161645116408   11.38143267108641
H           4.04200621503807  -25.86822793208066    7.91918133649684
H           1.93996957031180  -27.40208825767888   12.13784043409841
H           1.89759657360675  -24.97792520762220    7.14690984105292
