112
 SCF done       -216.263853440248          0.000781008105
C          -7.04525154991005    1.73196446417540   -3.94367303163492
C          -7.12958742952325    2.01872694252705   -5.27728419078453
F          -7.01302668716228    3.28369321246539   -5.70297775070715
C          -7.33890465956566    0.99214903228555   -6.21972792054138
F          -7.41852570603958    1.30228073241094   -7.52113040559233
C          -7.45937440833737   -0.30792968537457   -5.81547921316162
C          -7.37542939287092   -0.63540498510296   -4.44845424016786
C          -7.16590722983002    0.40163290854925   -3.49409506818916
C          -7.07849487129560    0.09745499106829   -2.11588066115155
C          -7.19370302213490   -1.20421875695993   -1.70467555849520
C          -7.39812470301404   -2.23235511976613   -2.66622523583781
C          -7.49090422245296   -1.97069477901721   -4.00225359221538
C          -7.47144999509324   -3.53305310657576   -1.97554326611820
O          -7.65880723950012   -4.61479702735174   -2.50103271691027
C          -7.27003173868924   -3.24891210954633   -0.54837463280447
C          -7.13942574955643   -1.81383963788304   -0.37685349154637
C          -7.00690582863444   -1.12269725962018    0.79970894481705
C          -6.97813606472978   -1.68510129204522    2.09323589426891
N          -6.95536067857174   -2.05436608634373    3.18069710581154
C          -6.89134839966279    0.28130631684809    0.88100366117367
N          -6.79182738804748    1.41681939836939    1.01748000495246
C          -7.17100148962296   -4.18606524103304    0.44787289618579
C          -7.24913998270060   -5.58668204390637    0.39188827407355
C          -7.04092808573116   -6.38762569049659    1.51442905816885
C          -7.12088004692710   -7.75255120983086    1.27256182981859
C          -6.89591818678682   -8.76948693179865    2.30607723965683
C          -7.70271857467258   -8.78085520382091    3.45015040861481
C          -7.49978446269433   -9.75159201293306    4.42470709163806
C          -6.49844863841897  -10.68850279416816    4.25418395149066
C          -5.68112597479776  -10.67767629472375    3.13892608084041
C          -5.87164365976309   -9.71251871283836    2.15814005176715
O          -5.10482091082928   -9.58062080189264    1.04062395956833
C          -4.13494328218234  -10.56394314235052    0.77630395149318
O          -8.66673459378774   -7.82013606343646    3.50101840887879
C          -9.53694387561159   -7.79796450269300    4.60730169759712
C          -7.43690817308687   -8.01744908930268   -0.06266529801532
S          -7.58009269331151   -6.57577634972337   -1.00350932573818
C          -7.66294339238642   -9.29594541133189   -0.67151857417666
C          -8.01114617914951   -9.43165991472441   -2.03280591608375
N          -8.01380927849532  -10.59456424335682   -2.63355739510413
C          -7.74840417581348  -11.68761168375825   -1.90490460771504
C          -7.62604708194587  -11.56718089200964   -0.50883032498015
N          -7.55595813412157  -10.40002183974116    0.07621763707271
C          -7.62857640845995  -12.94462951766705   -2.58565967542713
C          -8.08294667072052  -13.26719366073341   -3.84553198985744
C          -7.79076696849308  -14.57878784225217   -4.22449299711804
C          -8.15490938019193  -15.14436546747223   -5.52912801610064
C          -9.50816875072913  -15.23241136126222   -5.88346023524664
C          -9.86144413534288  -15.78454073209291   -7.11010082461988
C          -8.87359277158977  -16.23166831679528   -7.96720653360293
C          -7.53382873139979  -16.13338245852667   -7.64055012791208
C          -7.16439897169169  -15.58053540302648   -6.41992161928334
O          -5.87959874888675  -15.39563695747931   -6.00894921702543
C          -4.83683363837073  -15.93415976486038   -6.78861424529942
O         -10.38655732679226  -14.77801057499300   -4.95348516433110
C         -11.76577822185114  -14.90533838785240   -5.20557787331286
C          -7.11680826711828  -15.29472523029778   -3.22804270609532
S          -6.83367135488917  -14.28201349055860   -1.83577897454792
C          -6.61801517458042  -16.60101625198610   -3.36295355892720
C          -5.88389829629926  -17.36899885490855   -2.50335654225715
C          -4.96815531121385  -18.38513501089632   -3.07814873703478
O          -4.98618377211332  -18.83662647498300   -4.20163145657399
C          -3.97602647474013  -18.65071798342119   -2.01241703107403
C          -2.83449225133018  -19.39608784822529   -2.06735918813078
C          -2.00184401886957  -19.46304906985944   -0.92690976119757
C          -2.37203483481684  -18.75521699878692    0.25314567248417
C          -1.52931306712629  -18.81565123230740    1.38088625655832
C          -0.37395682665635  -19.54438942035542    1.33987348531017
C          -0.00976490065903  -20.24542248783223    0.17342355538183
C          -0.80656000793915  -20.20781359465759   -0.93637643373840
F           1.13051821791975  -20.95049111800870    0.15998430742713
F           0.42738508388520  -19.59709943150130    2.41299491638338
C          -3.56914777052097  -18.00306564269984    0.28572440701256
C          -4.35837179481559  -17.95359876785015   -0.83058428698441
C          -5.63460121339971  -17.28972092803023   -1.08480621499736
C          -6.54397282621486  -16.92241680999591   -0.12652945013133
C          -7.88749285145900  -16.62022377303431   -0.43173817002583
N          -9.00176028755616  -16.43781563411536   -0.63836533365102
C          -6.26524520393422  -16.91302856433777    1.25298380017499
N          -6.06978782150332  -16.86487524645699    2.38361171048496
H          -6.88520207711008    2.52980932122099   -3.23531910097686
H          -7.61877929613749   -1.08243617165810   -6.54929050396869
H          -6.91866847999616    0.90630580176286   -1.42184243524964
H          -7.64701013990033   -2.77194701698062   -4.70835751115602
H          -6.98087563822426   -3.81693893734585    1.44871623795514
H          -6.81938989485855   -5.97161242911521    2.48131133157751
H          -8.11445175055631   -9.78883023520287    5.30882446869706
H          -6.34858229712891  -11.44423881787913    5.01031872861680
H          -4.90711581354893  -11.42122589688804    3.04537859084978
H          -4.58420290063105  -11.55944246200363    0.70034945405295
H          -3.35107363460675  -10.57399396023613    1.54055391696739
H          -3.69516173923576  -10.29371933408488   -0.18299707203896
H         -10.21293032548434   -6.96272436619764    4.43044988572219
H          -8.99478129820310   -7.63055841185659    5.54334288740573
H         -10.11688094437445   -8.72311995323808    4.68160868010574
H          -8.26373848695362   -8.57292200595500   -2.64003800530515
H          -7.58578086132844  -12.43783239119986    0.13328875338176
H          -8.60289179740075  -12.55964218926573   -4.46400355972887
H         -10.89494979490581  -15.87187270325381   -7.40132472569873
H          -9.15416088742048  -16.66422556307732   -8.91552775799165
H          -6.79066516715652  -16.48499865970007   -8.33641145008264
H          -3.92089842879637  -15.70183279773904   -6.24773214280151
H          -4.79575962700844  -15.47557354867366   -7.78115428148108
H          -4.93154576322087  -17.01979920348415   -6.88447650544968
H         -12.05317718146920  -15.95168838123774   -5.34633157054358
H         -12.07110924112087  -14.32096519958642   -6.07951084134799
H         -12.26057138289288  -14.51304099302656   -4.31869293594153
H          -6.70842785892109  -17.01858811134174   -4.35954518358621
H          -2.56581538630130  -19.92523292023788   -2.96894250099165
H          -1.79538130368778  -18.28773110659424    2.28327938420195
H          -0.51332320015444  -20.74997703722490   -1.82170134455129
H          -3.82656781353783  -17.47183209120167    1.18838963227465
