116
 SCF done       -230.337164648765          0.000494452017
C         -11.51559372458359    0.46978911320028   -2.13046607780837
C         -11.08672676603015    1.27793311739136   -3.14552843425435
F         -11.77704048065842    2.38114931349055   -3.46604612310246
C          -9.91727549669745    0.96476740733010   -3.86650947952166
F          -9.51958749162278    1.77605180758342   -4.85715337863607
C          -9.19224319418401   -0.15286045788687   -3.56193806741121
C          -9.60789802501613   -1.00540668635461   -2.52083177094145
C         -10.79105141307456   -0.69084672266786   -1.79161997027160
C         -11.22925842984552   -1.53315262283957   -0.74413966202040
C         -10.50371479002689   -2.65336264104588   -0.43390719092022
C          -9.31969638590826   -2.95304628969587   -1.15991770607543
C          -8.87456368626087   -2.16356335353556   -2.18021501139198
C          -8.70799664646179   -4.18770450406893   -0.62511424891463
O          -7.72077812029800   -4.73035564084437   -1.07402214272886
C          -9.54109525190832   -4.57320376954948    0.53732576688761
C         -10.69967330477370   -3.69411888682474    0.57068679311725
C         -11.82155471092571   -3.83700862378127    1.34451302778657
C         -12.08342073064113   -4.90286189965385    2.23240583989543
N         -12.39599011579582   -5.74148658865653    2.95217544273941
C         -12.91194374176225   -2.94201110853917    1.31994693968951
N         -13.82638060834148   -2.24852232086702    1.35253259500596
C          -9.25208651734115   -5.46823881471802    1.53214425942297
C          -8.17832067055255   -6.36923209107214    1.69248380209897
C          -7.19553673231672   -6.80588565607278    0.83185649462474
C          -6.29497766430333   -7.70551005680957    1.42574597338436
C          -6.60185562692551   -7.96824401005686    2.77817934450212
S          -8.02280796239543   -7.11896217245995    3.28640255715790
C          -5.83757672115917   -8.79142864324996    3.59577512267700
O          -6.31296257781917   -8.91321472748073    4.86198496896692
C          -5.86697433882869   -9.91807364236097    5.74094308951589
C          -4.67954786226898   -9.34739460553136    3.01946162672284
C          -4.38623359991569   -9.11089422361030    1.63616307789689
C          -5.17166994543911   -8.31906429540061    0.81577904721012
O          -5.02670495360149   -8.02789819272850   -0.49393745801494
C          -3.94972076623148   -8.53235814214426   -1.24662847236131
S          -2.88880091182327   -9.90713707564907    1.18849974483379
C          -2.64059615186446  -10.49252090819922    2.81862465273583
C          -3.66649089634394  -10.12330111443399    3.63734286594307
C          -1.43153324501571  -11.20365949973099    3.14192841822968
C          -0.43101572973553  -11.33703070407113    2.19147787308354
C           0.79248769774064  -11.92081675504713    2.47759650724011
C           1.10631824620963  -12.41412674641298    3.73509876585063
C           0.08048976690314  -12.36274999118004    4.72847265823012
N           0.30193735919441  -12.88205354927091    5.94893930184147
C          -0.65097662216957  -12.83188986001615    6.84016055929235
C          -1.89643017558376  -12.25681161557316    6.54597863957202
N          -2.14607364070834  -11.73889391964207    5.37268376533924
C          -1.18316205396076  -11.76391767825227    4.43244299003728
C           2.42981536113850  -12.91503179154885    4.00166885333275
C           2.96904492223136  -13.37075611076541    5.17300124571931
C           4.33471350537357  -13.71822428535156    5.07273916212772
C           4.83822424479487  -13.51824226818750    3.77425792410842
S           3.61857335358212  -12.91628804187945    2.70106328747894
C           6.15926691019133  -13.74175779643857    3.41349986938538
O           6.44621210110282  -13.47915479192279    2.11410222302279
C           7.75050147619746  -13.17614020229870    1.67891658007597
C           7.01240952030217  -14.21444049630508    4.43276481162575
C           6.50522980923412  -14.40821108656125    5.76276073249474
C           5.18541451152943  -14.17131306248510    6.10793756989249
O           4.57445224749864  -14.30616643435881    7.30827820427466
C           5.29260734290029  -14.70087750308537    8.45359669438202
S           7.78303092132839  -14.97510907401203    6.82264873882064
C           8.95873008041825  -14.92187829253566    5.53340794818662
C           8.38359990179805  -14.52631572413704    4.35054202521978
C          10.28925322391742  -15.32608168822988    5.78150416645109
C          11.41309807423630  -15.09451478383479    5.04253324089311
C          12.60188743094290  -15.96396222072843    5.25996409546634
O          12.77670178935261  -16.73616731376741    6.17376426418482
C          13.48231859801402  -15.71900404912720    4.09865009719630
C          14.64869412132347  -16.34019582860325    3.75813149149866
C          15.31044187237760  -15.95565385239294    2.56981330267586
C          14.74300850657137  -14.93571975864359    1.75223354123520
C          15.40213250731179  -14.56325478193977    0.56367880701248
C          16.57237606527051  -15.17159191542482    0.20566590665144
C          17.13468835656915  -16.17773531140741    1.01645471944415
C          16.51802257230132  -16.56263033849793    2.17406617981216
F          18.28277216108822  -16.75709274954462    0.64066999580589
F          17.19762932527846  -14.81575092946257   -0.92421009273424
C          13.53799374664790  -14.30363638154413    2.13591356010559
C          12.92124060373455  -14.68467656804883    3.29720681366909
C          11.71421681671054  -14.19035914709746    3.95692251954624
C          11.14789907542403  -12.96201464241089    3.72175975007222
C          10.16430064672379  -12.37691366471527    4.54251470113158
N           9.38387999397856  -11.83727006205743    5.18927344153509
C          11.52417353756613  -12.10888136827137    2.66578944665791
N          11.75865187247845  -11.38979384705358    1.80167973825962
H         -12.41385446298636    0.72348548905055   -1.58953054078478
H          -8.29879942166973   -0.37878070252554   -4.12269057321116
H         -12.12552389852936   -1.26462167687244   -0.20906573477138
H          -7.97336714741710   -2.41813208809978   -2.71704138613418
H          -9.92613556616879   -5.46556870553816    2.38149708231779
H          -7.11218774281990   -6.48434413622817   -0.18941359076389
H          -6.62624475617676   -9.96867145324113    6.52182117807510
H          -4.90833227284215   -9.65462047022923    6.19770309370657
H          -5.79295567084948  -10.88881017923335    5.24490609316056
H          -4.10734406651590   -8.15244613953920   -2.25520075505258
H          -3.94631546867398   -9.62525999252518   -1.26912046382939
H          -2.98881889352698   -8.17083090681840   -0.87193747492989
H          -3.64516874361473  -10.39970785799276    4.67133623210849
H          -0.60004373250523  -10.94906269413897    1.19740569434544
H           1.53771823602356  -11.97012187840965    1.69760037728209
H          -0.43354408499628  -13.26060217042846    7.80904488573115
H          -2.69862102395991  -12.22409916426722    7.27141176773102
H           2.40943795739378  -13.44575854407153    6.08521417258063
H           7.62420427880998  -12.61626836436242    0.75192881775948
H           8.32128329958906  -14.08458264367161    1.46052563546994
H           8.28499887880363  -12.55462367425994    2.40172583137500
H           5.70532793003759  -15.70749438001833    8.34815787107830
H           4.56163917812618  -14.69766360481592    9.26131058046406
H           6.09428854787700  -13.99770088924470    8.69231474501348
H           8.94549899400500  -14.53328155370944    3.43643925777965
H          10.43904350826664  -15.96386828844464    6.64745845576417
H          15.06204604105828  -17.11437233712753    4.38635157441153
H          14.98742987939405  -13.79157621915425   -0.06595534360796
H          16.96146357402842  -17.33443291154721    2.78342914627055
H          13.12906484345542  -13.53818362581992    1.49580047888907
