103
 SCF done       -220.573367981120          0.000990775069
C          -9.42673580962795    2.25026100928436   -3.00423130264828
C         -10.48921757019722    2.50373975391406   -3.82587783486537
F         -10.85360453881305    3.76693609181611   -4.08533592815922
C         -11.21362552052928    1.44518937467288   -4.40864922242379
F         -12.25157587531729    1.72290186470186   -5.21020337384502
C         -10.86547140337502    0.14669482883115   -4.16158248179528
C          -9.77628337736332   -0.14658988653519   -3.31872261256918
C          -9.04269982089443    0.92270993112820   -2.72869328936295
C          -7.94632556009852    0.65286579261682   -1.87676867595762
C          -7.59626622251527   -0.64632337014654   -1.62083843790826
C          -8.33570623575428   -1.70639688882340   -2.21512399584505
C          -9.39595500896355   -1.47917207701336   -3.04306361722910
C          -7.76693833185451   -2.99472822631051   -1.77793441516381
O          -8.15492593212466   -4.10024109866057   -2.10997943808643
C          -6.65882417238901   -2.66643942074226   -0.87533878632609
C          -6.53860921967661   -1.22543954102821   -0.79314897060377
C          -5.61099996873754   -0.50209779370426   -0.08560282011686
C          -4.57673312256174   -1.03564168327031    0.71018698799182
N          -3.70703471335077   -1.38356873026988    1.37652661138365
C          -5.56151177244524    0.90724892175553   -0.05977605586984
N          -5.46440189007945    2.04947557775047    0.00704355513725
C          -5.88130878010001   -3.57453880556636   -0.19638521551969
C          -5.90971052223872   -4.97379272381201   -0.18184826726625
C          -5.02952016657238   -5.70631700208990    0.62915863106939
C          -5.22048171257933   -7.06628090568862    0.50509328588640
C          -6.25289239948753   -7.39947083677939   -0.42067761182483
S          -6.98884586355489   -6.00950798477448   -1.11709850947904
C          -6.32400740827140   -8.78763545321492   -0.44126330392228
C          -5.34340588555165   -9.26575634391795    0.46830848371311
N          -4.68712143752691   -8.20966910165096    1.04245690640078
C          -3.59781714356652   -8.28146703083194    1.97616553711981
C          -5.29759361590388  -10.65037131864178    0.55568974697639
C          -6.22934164823719  -11.24953737208933   -0.28308580035209
S          -7.17413412164923  -10.08044543862481   -1.19973224825871
C          -6.47716768828240  -12.63704988598007   -0.47952717549810
C          -5.86760385167028  -13.68533137477896    0.25464484793776
C          -6.13447951233854  -15.07782136507955   -0.01510194548756
N          -5.51449974927901  -16.01599121807512    0.73176374487009
C          -4.70095115593182  -15.66407492810886    1.67222592079315
C          -4.44329292272689  -14.30030293408842    1.93959151552402
N          -5.01145240007166  -13.36751768239978    1.24859620001763
F          -3.60931787453614  -13.92368219678484    2.91095570025322
F          -4.12126630270107  -16.63693709281704    2.37836866806068
C          -7.01663040070542  -15.49811672395846   -1.04155527348964
C          -7.64146212732073  -14.44874984889011   -1.75157352729054
C          -7.38736468359685  -13.06181845312780   -1.47303307583161
N          -8.09653398242519  -12.26387075477871   -2.27124091555803
S          -8.98637353808070  -13.15352829818632   -3.26449009136216
N          -8.52319955978913  -14.59696301322542   -2.74020721918460
C          -7.27862812195588  -16.85206993908072   -1.39310434802962
C          -6.80472915119516  -18.00928038164295   -0.79058683360905
C          -7.25042957584349  -19.15152274627921   -1.44448549411428
C          -8.07363861478997  -18.87027871006915   -2.56792863440171
S          -8.30804772082893  -17.17746677433836   -2.78573762268915
C          -8.40724789087003  -20.09528777778411   -3.12666379849195
C          -7.79446736577217  -21.09629353479610   -2.32614246484405
N          -7.09615037943367  -20.50480677164643   -1.30799907496604
C          -6.31974022638685  -21.19222883301584   -0.31352282223612
C          -8.05250004648292  -22.38911469265557   -2.76449549347411
C          -8.80518787134859  -22.39806671865196   -3.92998096355674
S          -9.26848659841380  -20.77470659932474   -4.44855113859162
C          -9.24998597736171  -23.54305154092307   -4.62594450913227
C          -9.64443528710285  -23.63069004336848   -5.92881846379430
C         -10.53755204668188  -24.73109056847632   -6.37315890614979
O         -10.81414268210909  -25.73740670285769   -5.76129938446380
C         -11.05791253887651  -24.29528308893217   -7.68791991837611
C         -12.00994601921012  -24.87919882434035   -8.47237580302717
C         -12.37010422267408  -24.26078715404167   -9.69137282860467
C         -11.73777348511303  -23.04174536461602  -10.07242355865468
C         -12.10706391512064  -22.42796714199420  -11.28601422776442
C         -13.05627296183896  -22.99919475453763  -12.08613081898885
C         -13.67972622524428  -24.20533954875884  -11.70959702852312
C         -13.34499603338950  -24.82389841156909  -10.53770880856843
F         -14.60827112120018  -24.74273457086790  -12.51324035443333
F         -13.40457938615014  -22.41486134357732  -13.24062261573680
C         -10.74935842536811  -22.46371472877135   -9.24324057476545
C         -10.41134795848288  -23.08568330913437   -8.07215599207709
C          -9.42072062920579  -22.75051377921778   -7.05388501990814
C          -8.31473374314545  -21.96506321176789   -7.25407479530692
C          -7.23572388043877  -21.91187410888920   -6.34780523390626
N          -6.31976643370689  -21.89312864084385   -5.65551828163710
C          -8.09210501302699  -21.20896940208942   -8.42122576336105
N          -7.87503134419582  -20.56612154168917   -9.34716652920988
H          -8.88283997384024    3.07265357643758   -2.56634805497002
H         -11.43006210686629   -0.65282285019407   -4.61513784612366
H          -7.41444577171530    1.48572477379694   -1.44672550331374
H          -9.93804887309585   -2.30430088595026   -3.47932794772837
H          -5.11799763227190   -3.16281864376562    0.45267073049922
H          -4.30290944175013   -5.22675441411560    1.26015070110460
H          -3.62802410477882   -9.24066207465968    2.48929926848885
H          -3.68989695116405   -7.48088555505165    2.71019234053860
H          -2.63504355017695   -8.18224604440258    1.46642461016099
H          -4.63761657281130  -11.22302811252119    1.17694498181474
H          -6.16828828380489  -17.98153992215341    0.07189445328499
H          -6.96213177828098  -21.82084391375490    0.30802360915859
H          -5.82188811946627  -20.46009283286219    0.31753027893816
H          -5.56687871681739  -21.82277695930971   -0.79107151536925
H          -7.68499056772316  -23.29022118104596   -2.30865701238991
H          -9.36699154315495  -24.44748866171418   -4.03679253437831
H         -12.48293301068383  -25.80067087372980   -8.16888306040137
H         -11.63660290678764  -21.50619756912205  -11.59051038030804
H         -13.83191566215632  -25.74672604723693  -10.26404103060146
H         -10.28977901781404  -21.53703889152639   -9.54838288730478
