86
 SCF done       -180.733156518107          0.000548807474
C          -6.15918521702079    0.71357035418546   -6.52691957390555
C          -7.41743850669810    1.18768798221878   -6.77044633103151
F          -7.59161320232095    2.27611507839842   -7.53168155218387
C          -8.54529929939647    0.54073492371176   -6.22686225951721
F          -9.76710739784785    1.02842721840805   -6.48138997955791
C          -8.39928180014395   -0.57346392167419   -5.44899262668471
C          -7.11584934068137   -1.08799290329342   -5.18164269658994
C          -5.97421096586731   -0.43214379361386   -5.72702432913525
C          -4.67570282918970   -0.92669351683844   -5.46732891448854
C          -4.52615391033992   -2.04555021135830   -4.69111600230824
C          -5.67116596618512   -2.70287570792992   -4.16438399302408
C          -6.93677355913091   -2.24428845846939   -4.39012686003141
C          -5.25100345013210   -3.89469784198876   -3.39874926518670
O          -5.98991335374092   -4.63635864011735   -2.78614740270997
C          -3.78281134814924   -3.98064851251806   -3.57420859039885
C          -3.34007291623092   -2.77614525572266   -4.25775909964528
C          -2.04908810598002   -2.33822739972202   -4.39290308302206
C          -0.90817835323768   -2.97971852397619   -3.86400906225780
N           0.06317152516438   -3.42516872617636   -3.44382153129766
C          -1.69242529494417   -1.13577612426848   -5.03947276002213
N          -1.34204940020999   -0.17209547080946   -5.55541043176452
C          -2.96077591740377   -5.04580485620586   -3.32225781799362
C          -3.20059881830185   -6.26463077791663   -2.65904866972190
C          -4.23841575479342   -6.70181695247238   -1.85085702130363
C          -4.01811805572318   -7.99151889008469   -1.38402124582174
C          -2.81904082641038   -8.57379607884444   -1.82551428192949
S          -1.93198765317957   -7.48906778147770   -2.81765530872409
C          -2.61882781743202   -9.87791889382509   -1.36428133624702
C          -3.64652207905205  -10.30053091065338   -0.55428203627143
S          -4.88636575574457   -9.07873934755064   -0.35708454633119
C          -3.77520233492503  -11.58040089978719    0.10731751997578
C          -3.11038366686869  -12.70711779184442   -0.41898558415855
C          -3.18375744220545  -13.94677186470061    0.16990778360989
C          -3.93810891574166  -14.06131307235150    1.33341465698854
C          -4.60639093810960  -12.93046697334152    1.86006523678216
C          -4.55068118341859  -11.69153869545106    1.26272586547633
O          -5.23833934688450  -13.32344732459575    2.99188607261090
C          -4.93463549630204  -14.64618467241146    3.10685521714253
N          -4.18338704317295  -15.12149926595986    2.15667373357483
C          -5.40982097177315  -15.38912038445175    4.22439472749485
C          -5.20653896716164  -16.73282351263434    4.44512913710265
C          -5.76666496426602  -17.13185150493338    5.65906019154504
C          -6.38801089128208  -16.08951001502536    6.36676835868442
S          -6.29778503719905  -14.59786360246804    5.50126833468141
C          -6.89261275076474  -16.47065654046066    7.60625799228146
C          -6.67726590384340  -17.81403751874952    7.85925527120868
S          -5.86397011462058  -18.61475462446353    6.52316666541950
C          -7.05539720623220  -18.58900008001356    8.98111073299818
C          -7.33110253498596  -18.19278863161245   10.25366892469341
C          -8.09106352561985  -19.11738637461948   11.14319136574694
O          -8.33613196338476  -20.28159996938339   10.93194646035380
C          -8.51482593950795  -18.29233707532976   12.29164373715238
C          -9.31673535707259  -18.63307540431987   13.34262541198898
C          -9.60229368040709  -17.66464133122438   14.33094642661140
C          -9.05804132760434  -16.35354874358396   14.20277213850637
C          -9.34953814983948  -15.39059121231643   15.18982817877647
C         -10.13917817949116  -15.71554284278018   16.25681385014382
C         -10.67525929118556  -17.01317310550118   16.38381676701352
C         -10.41403467330498  -17.96800362929972   15.44140351954494
F         -11.44625855695935  -17.30296814063304   17.43980459319971
F         -10.41207585204029  -14.80071280776828   17.19552429347323
C          -8.22847722510944  -16.03074311780629   13.10471270728718
C          -7.95160658879902  -16.99021307212385   12.16767547530642
C          -7.09767505637457  -16.96357753504349   10.98167119820665
C          -6.08736519210810  -16.06285128898741   10.76696728040284
C          -5.09644494682467  -16.20823065217279    9.77542725372082
N          -4.24214545990443  -16.29793368656769    9.01412274401734
C          -5.86506988634492  -14.92602812678842   11.57165337775109
N          -5.65529816363103  -13.97573170811266   12.17983976050643
H          -5.30635111706147    1.22202713870054   -6.94865613364825
H          -9.27264264897554   -1.05775658433055   -5.04119656159142
H          -3.83216291013824   -0.41176964071379   -5.89770652578162
H          -7.78922270866380   -2.75937426379132   -3.97410440384032
H          -1.95624383215285   -4.97576041130171   -3.72526048319758
H          -5.10201706433260   -6.10361701546499   -1.62903556288781
H          -1.74907318662750  -10.46601159890942   -1.58942008088243
H          -2.54178865327146  -12.59088012481354   -1.32797824693632
H          -2.67875100842751  -14.80412298770103   -0.24248354143155
H          -5.06481343554131  -10.83989633475744    1.67900572501832
H          -4.67474088411331  -17.36014992083107    3.75577963263609
H          -7.42273210644765  -15.81523293287241    8.27295659784492
H          -7.19900361779654  -19.64967524893814    8.79569522998916
H          -9.72464422280053  -19.62926385760468   13.42085305516545
H          -8.94366109472883  -14.39420151945768   15.11019061319978
H         -10.83167129023522  -18.95630857462757   15.55326019309020
H          -7.83658012261119  -15.02901538299501   13.02959172496697
