99
 SCF done       -223.616483770597          0.000563496974
C          12.58681726625368   -5.01680820709506    6.66425981119627
C          13.01462157878603   -5.33450161243920    7.92304247286436
F          14.21963605848570   -4.93234945329328    8.34583416165080
C          12.19685484141346   -6.08657718718572    8.79037796583699
F          12.64186704872683   -6.38307578090654   10.01824676099963
C          10.96170244940945   -6.51066702453446    8.38655609753667
C          10.49279244490298   -6.19868315693136    7.09585129008658
C          11.31851543450801   -5.43859443816762    6.21762470626517
C          10.86901752098538   -5.11251296360607    4.91698061285086
C           9.63112346746715   -5.53232054938314    4.50690283751846
C           8.81401156177179   -6.28963335162017    5.39270116189256
C           9.21991245862174   -6.62165540382410    6.65292087688087
C           7.54416666886426   -6.60861250042596    4.72085003253006
O           6.61863968862672   -7.24770554292937    5.19025482068381
C           7.62068785188169   -6.00311386204183    3.38653626249520
C           8.90970355056032   -5.35027498150435    3.24839459203563
C           9.39398756429372   -4.68651801209639    2.15135002389523
C           8.71499578173787   -4.50847372655398    0.92751199714892
N           8.23350661829354   -4.32197856639360   -0.09844044766604
C          10.66795656872449   -4.08161210108776    2.09366728789062
N          11.68988464524094   -3.57151126164558    1.98035721803173
C           6.62685553113567   -6.04529015640080    2.44262478270919
C           5.36214902690384   -6.65313089181754    2.49237176922199
C           4.47084247819502   -6.58542652235084    1.42117473441696
C           3.28198160720576   -7.25015261801899    1.65091148402189
Cl          2.01501534159055   -7.32188830622955    0.49688328211335
C           3.21323807737292   -7.85765305551822    2.90999775093196
S           4.67543872914820   -7.57087696429774    3.80737103069020
C           2.14500849209319   -8.61489699460610    3.43633682801119
C           2.06344897911235   -9.23185317210748    4.68798577479645
Cl          3.31612635934077   -9.14525313451600    5.84693750593479
C           0.87926993317576   -9.92649605282506    4.91339039423546
C           0.01252704687420   -9.86197307119401    3.83598077949583
S           0.68507950538874   -8.92052424407341    2.53569864136497
C          -1.25340727913173  -10.46989784632514    3.73334703117819
C          -1.88315804915985  -11.27665218462176    4.69376120801609
C          -3.16488848868616  -11.76879480377040    4.26178194055842
N          -3.89795667980063  -12.56106026609475    5.04714595486292
C          -3.40088726059014  -12.86345673006799    6.22636497945685
C          -4.21975334585258  -13.74862417271069    7.09397254477723
O          -5.28873957414526  -14.19913517452615    6.74186871578208
C          -3.63374104523705  -14.04095872832563    8.41402249212393
C          -2.44785473843268  -13.57494162419023    8.81914681750558
C          -1.58313662123686  -12.71196003653076    7.99511206875613
O          -0.50575622695847  -12.31157977215314    8.38111351345320
C          -2.13105317884785  -12.36903750501653    6.65808013708940
N          -1.39415163207475  -11.59222392219730    5.89437863279722
C          -3.51485800686251  -11.33082017016726    2.97600370334423
S          -2.25907455992537  -10.32490392227896    2.32829422253314
C          -4.68712285384688  -11.64567570928652    2.26133145555620
C          -5.71498088926173  -12.47568107100078    2.67346930415882
C          -6.71630596679662  -12.59740552759324    1.71494307919176
Cl         -8.10747393898300  -13.56478003054647    1.94926182544561
C          -6.49608565600062  -11.86176444440782    0.54974179830537
S          -4.99025905436042  -10.99891727087370    0.67383510962504
C          -7.31406476743314  -11.77759045208421   -0.59836735747913
C          -7.13848894108237  -10.97714620626573   -1.72657728186543
Cl         -5.82475303039060   -9.89339805200680   -1.90267359404283
C          -8.11825687161933  -11.14197004126474   -2.69972959295480
C          -9.09254323914629  -12.05763481495256   -2.34403269539576
S          -8.74641804115515  -12.73955734130381   -0.77743102693962
C         -10.15096761796692  -12.49013794708618   -3.17537086784031
C         -11.22877039745181  -13.26770297017174   -2.88443338377061
C         -11.90954860330275  -14.00171437466177   -3.98905888493461
O         -11.80611302190144  -13.78703714940564   -5.17346901668301
C         -12.66675236869182  -15.07935049447148   -3.32007583599276
C         -13.35362872989464  -16.11838251388075   -3.87882950977771
C         -13.97857725310918  -17.06207365271025   -3.03310628233563
C         -13.87581840200019  -16.91197596513699   -1.61918673324448
C         -14.49396233086618  -17.86322887107406   -0.78288697643136
C         -15.18374112051514  -18.91165012106838   -1.32396506995701
C         -15.28643794795118  -19.05785326040932   -2.72217774507865
C         -14.69730217656379  -18.15294560951812   -3.55993989369973
F         -15.96767788233427  -20.09603374881584   -3.22460469782677
F         -15.77047292485942  -19.81427442954068   -0.52768583123834
C         -13.16621120196779  -15.82001439091709   -1.06870452709741
C         -12.57546437250017  -14.91418983973202   -1.90782027847276
C         -11.82610485751480  -13.69078786905381   -1.63525046841825
C         -11.91866969537189  -12.94307982227453   -0.49190944759622
C         -11.43825100011291  -11.61976005816267   -0.39923000022127
N         -11.11044459035685  -10.52291941468043   -0.31989820668060
C         -12.59108503545957  -13.37285598092928    0.66984777755981
N         -13.11028559484438  -13.69460496015559    1.64128001303018
H          13.22568724602259   -4.44056079461834    6.01335859727642
H          10.34753008691134   -7.08534404962415    9.06200339029037
H          11.51923667907043   -4.53591322444832    4.27959266067727
H           8.57817724805740   -7.19756722214039    7.30212214505484
H           6.81732083606338   -5.53947721891666    1.50400849089897
H           4.69503866677594   -6.06541054840416    0.50719725660711
H           0.64710119241696  -10.46217408331945    5.81577412947676
H          -4.23598492820154  -14.67508514968451    9.05065195063940
H          -2.05286663797785  -13.81682041400109    9.79670558770805
H          -5.71920623703386  -12.96611803863494    3.62993667547442
H          -8.13013963688805  -10.59692579969683   -3.62569658381683
H         -10.03464797808771  -12.24790286251704   -4.22792536438854
H         -13.41849792713065  -16.22036639469833   -4.95137035463689
H         -14.42832678290979  -17.76434326078312    0.28934625315723
H         -14.78475920209217  -18.27896666136215   -4.62772577463207
H         -13.09624773998445  -15.73179814467139    0.00389652050091
