97
 SCF done       -207.034560333546          0.000952385106
C           0.31809911438355  -17.66635470863867   -4.79895027839159
C          -0.19743826634912  -17.96896167263462   -6.02807115250526
F           0.41960197146841  -18.86002547450528   -6.81611341755598
C          -1.38017043252186  -17.35171225378189   -6.48131940830672
F          -1.86318534125675  -17.66879852139679   -7.69072572265395
C          -2.03125821494379  -16.43912990731775   -5.69913472429825
C          -1.52506414473035  -16.10624475851450   -4.42792949462154
C          -0.32960574124314  -16.73056815500010   -3.96793880290400
C           0.19736274843849  -16.41535527142826   -2.69372457170461
C          -0.45196325194583  -15.50434326876992   -1.90373404455029
C          -1.64428363324297  -14.88524384488896   -2.37428020031164
C          -2.17771030071118  -15.16679210914003   -3.59813362181301
C          -2.14211307415994  -13.95866297867740   -1.34282820206414
O          -3.13630115394009  -13.26003691355310   -1.40992081243495
C          -1.19668497381487  -14.04543457905427   -0.22569416455118
C          -0.15667563143682  -14.99184212245918   -0.56562064536622
C           0.91720511726902  -15.36425847736789    0.20334929101101
C           1.21494024546619  -14.88427924603603    1.49573245276605
N           1.53154214266709  -14.55325463424992    2.54932231762563
C           1.89075727976296  -16.30064682810230   -0.20272694076476
N           2.71699804878046  -17.05110198418712   -0.47164772121642
C          -1.30213167149077  -13.33127358793206    0.94300550971747
C          -2.27813686308019  -12.41859884826152    1.35229541510468
C          -2.19980263997463  -11.79481579105149    2.61469006790016
C          -3.25506381114252  -10.92580930079253    2.86516232160677
O          -3.46641466241453  -10.16360483705815    3.96620268436087
C          -2.35648778754594  -10.00830168635263    4.82829909542464
C          -1.73588126917603  -11.34277432768908    5.20916482558786
S          -0.91743161923832  -12.10225544912227    3.76416888579531
C          -4.16824510450180  -10.87951660627440    1.80488840705405
S          -3.70994345408085  -11.90452559576963    0.47984903588459
C          -5.30827740466471  -10.06481812181312    1.79877904722215
C          -6.25008676146856   -9.90915773557392    0.77080697848358
C          -7.27385318419880   -8.96881858402978    1.11535869323834
N          -8.23852059795500   -8.63549075046047    0.26691629287883
C          -8.22351499039867   -9.21615641150418   -0.91541669680562
C          -9.27970643650014   -8.81023812751376   -1.87349772061001
O         -10.16624450947926   -8.03273147732449   -1.57934826285126
C          -9.17326243298850   -9.42258374605179   -3.20591464244090
C          -8.25360379616628  -10.34009028211582   -3.52126857206133
C          -7.23687313519388  -10.85037655515874   -2.58054233268262
O          -6.47582042269727  -11.74194342088984   -2.88219128029755
C          -7.22362020310714  -10.18484742040273   -1.24988976576415
N          -6.25758563103618  -10.51509114533369   -0.41806994610909
C          -7.12247032645900   -8.40877592597459    2.39290849093802
S          -5.70832456120437   -9.04735540923418    3.15954160862124
C          -7.97986866434064   -7.41073492722519    2.86813620803867
C          -7.89328152510926   -6.62209314517757    4.01270739573404
C          -8.88758462481974   -5.62957423288187    4.06543102512430
O          -9.02786840201088   -4.68542517191563    5.01941276620944
C          -7.90020773525279   -4.47553980578906    5.84480528365411
C          -7.41599971644941   -5.75943067375296    6.49922609776479
S          -6.67808314770725   -6.86579169506391    5.24465764709266
C          -9.74139642599181   -5.66033141189863    2.96246291104674
S          -9.33790700357778   -6.96713554970859    1.88099436696189
C         -10.82295714051637   -4.78373643092517    2.72654588554210
C         -11.45289447980957   -4.56564678583056    1.53907655315608
C         -12.83061866943270   -4.00503980406227    1.51148269374744
O         -13.40661129403999   -3.44139706348003    2.41293959202287
C         -13.35632976726505   -4.35532551593256    0.17396881514762
C         -14.61699008189864   -4.19537918792373   -0.32472790187445
C         -14.90156561500348   -4.65685665120691   -1.62991369955742
C         -13.87702710694523   -5.29586553304432   -2.38842961064402
C         -14.17869486589314   -5.77012885748914   -3.68087653095769
C         -15.43272454079127   -5.61069183349713   -4.19952302680430
C         -16.44236851905234   -4.97323437794132   -3.45151300566821
C         -16.18397933460312   -4.50694521071008   -2.19330524075840
F         -17.66387301572145   -4.82876441944972   -3.98576675223559
F         -15.71534311066317   -6.06060131454382   -5.43061979204629
C         -12.57750147160472   -5.43973932447512   -1.85100868344704
C         -12.32118117662180   -4.95967134755856   -0.59594285782751
C         -11.08807791376468   -4.92055553233716    0.18064342490288
C          -9.82652533745808   -4.91680378064697   -0.35018103036736
C          -8.67974662265357   -4.57159876945393    0.39509065975367
N          -7.73562932997311   -4.24134633834511    0.95931039413176
C          -9.53849956931826   -5.17046857178730   -1.70594519575088
N          -9.23485542742814   -5.36466046496895   -2.79566646276122
H           1.22439785096483  -18.14845203518629   -4.46704487085095
H          -2.93570976614451  -15.97484333625903   -6.05965300421267
H           1.10309224103640  -16.90658736010319   -2.37739118820337
H          -3.08476028273256  -14.68109353717562   -3.92424194836353
H          -0.52351599577013  -13.48231437098704    1.68285861735629
H          -2.75450219967794   -9.50187596823141    5.71095661931281
H          -1.60186054302748   -9.36783547242981    4.35330229208735
H          -2.49746954104438  -12.03202866784905    5.57421115077947
H          -0.96131241690806  -11.21270512984144    5.96118466665684
H          -9.90475168473799   -9.08648640902778   -3.92793550170608
H          -8.21606781064392  -10.77908880818882   -4.50929494826248
H          -8.23491675536632   -3.76386388140066    6.60333314392838
H          -7.08843449093544   -4.02496176971157    5.25882998265265
H          -8.24304653273538   -6.28560528666314    6.97658788661613
H          -6.63368076763367   -5.55756293239101    7.22698020994926
H         -11.23625631001493   -4.28372228770354    3.59603920595889
H         -15.38792525260627   -3.72522073056020    0.26670529100602
H         -13.41518026700198   -6.25612541748103   -4.26755228370977
H         -16.96827104064922   -4.02245545001782   -1.63295426873456
H         -11.81735603027802   -5.94598856628753   -2.42404125735710
