115
 SCF done       -222.028856957959          0.000727217278
C          -0.87176520228551    3.18191076071625    0.26127050736309
C          -1.15354161271810    4.22060249832463    1.10306025771490
F          -0.75050354458647    5.46202593753704    0.79956442511164
C          -1.86913718607620    4.00270281816006    2.29764489717296
F          -2.13103033473321    5.04082239654599    3.10397090284631
C          -2.29353076933308    2.74802704785001    2.63376401594839
C          -2.01809772163033    1.65664003267472    1.78714658898149
C          -1.29382219924589    1.87490452614577    0.57943313412516
C          -1.00189933159893    0.79480816252777   -0.28402118402028
C          -1.42131888239971   -0.46720421327119    0.04974135840498
C          -2.15001008205545   -0.67143429436284    1.25078456759222
C          -2.44552222528102    0.34953768981482    2.10700792881991
C          -2.50546445444242   -2.09872830340416    1.38281674036125
O          -3.08835299933086   -2.57689891699896    2.33253126536867
C          -2.00025368009898   -2.75820214042361    0.15403874426769
C          -1.27095617816519   -1.75560959006400   -0.61930830160225
C          -0.52483753650325   -1.95297309308768   -1.75262773966064
C           0.16552238030924   -0.92450303306090   -2.43047274867177
N           0.75416060618485   -0.14588424466173   -3.03468375643947
C          -0.29181088295020   -3.17531584094673   -2.41949881691994
N          -0.02362474924339   -4.10863794111925   -3.03497795396015
C          -2.17205948436865   -4.03356158548843   -0.30698589300959
C          -2.81926928563805   -5.21385327450921    0.17448116443626
C          -2.76062793849407   -6.32593905253011   -0.68820328933748
C          -3.37049997190720   -7.50123289734077   -0.30806373410216
C          -4.06220761388174   -7.60136574881380    0.93107775788127
C          -4.10732925052049   -6.50212614916929    1.78460028512103
C          -3.49206296326699   -5.33179173399576    1.41060146513163
C          -4.59445139751934   -8.92330707304409    0.98679374467032
C          -4.20433849191107   -9.56547275786070   -0.21760521012242
N          -3.45241400162443   -8.70094418112766   -0.97250940009062
C          -2.87088449263034   -8.98523515498153   -2.25374291031654
C          -4.59504953428509  -10.86494434886727   -0.49418765665273
C          -5.38327518525707  -11.53049837344985    0.43844219943358
C          -5.74769674366272  -10.90278335729680    1.64262432279227
C          -5.36087945676054   -9.61307461716745    1.92172000854422
C          -5.82707739882672  -12.89456571906454    0.14828754590750
C          -7.06127238712532  -13.39892344348028    0.50523380027900
F          -7.95932946828956  -12.61973562692053    1.13723039197854
C          -7.48651254959327  -14.71183161882103    0.21505157709230
F          -8.71747593947429  -15.03666632267861    0.65265198196647
C          -6.70957315652002  -15.64287475827046   -0.44437699641354
C          -5.43189275847805  -15.16100351117305   -0.80652776232471
C          -5.01371026285702  -13.82031394955301   -0.54203260499670
N          -3.77292283922552  -13.68761531114039   -1.03721862703326
N          -3.49885675313839  -14.85693332857153   -1.54526220080802
N          -4.42306990035710  -15.77143083617651   -1.44801605250807
C          -2.24373578553031  -15.11886033236043   -2.18071735224940
C          -7.14509390373196  -17.00553795491518   -0.75348383589126
C          -6.21647959744531  -18.03967600055379   -0.70168809118527
C          -6.64515513596466  -19.32608135902206   -0.98284177131325
C          -7.99774808292533  -19.58648197705119   -1.32458312422361
C          -8.90951164051238  -18.53828303155984   -1.39330342538761
C          -8.48035766041212  -17.26311444731907   -1.10782199920306
C          -8.10022232400464  -20.99564866607818   -1.52780974595307
C          -6.80164813109881  -21.52492271285466   -1.30494584673136
N          -5.94225329272864  -20.50577089654886   -0.98755991193642
C          -4.55273835507882  -20.68400118911664   -0.67566135108613
C          -6.54897315485517  -22.87922706570794   -1.42094122850890
C          -7.62048202992798  -23.72906813718446   -1.69961353991441
C          -8.90488784544609  -23.19768870762960   -1.93541077099493
C          -9.14681106554239  -21.84701732680186   -1.86762239322530
C          -7.39225358048188  -25.14880220755712   -1.77361183159175
C          -8.25316384128314  -26.14031672208158   -1.43999218598264
C          -8.04451204124367  -27.52495995606677   -1.94418732069123
O          -7.04151129356689  -27.97131037069618   -2.45040731651849
C          -9.34270470427459  -28.20555119384503   -1.74846434045074
C          -9.72844567069861  -29.45035743106241   -2.15502855709455
C         -11.04489565930800  -29.88521286979353   -1.88281332764349
C         -11.94208558014986  -29.01503326276794   -1.19755076368374
C         -13.25709499032509  -29.45176965591098   -0.93883778734869
C         -13.66067857158427  -30.69501638961136   -1.33683390785287
C         -12.77163373544361  -31.55621667546988   -2.01108381344503
C         -11.49122512709927  -31.16116047363566   -2.27918443299293
F         -13.19499304293678  -32.76999121161337   -2.38965630155398
F         -14.91053294195209  -31.10879489322008   -1.08931870932964
C         -11.51249696587013  -27.73491548166771   -0.78043209291032
C         -10.22864990131725  -27.33904112938776   -1.04579709528810
C          -9.50873152022702  -26.11419730726084   -0.71144934120267
C          -9.84148649877558  -25.24424535891405    0.29128296954057
C          -8.97313564293939  -24.24035489077734    0.77094879637325
N          -8.27776690291393  -23.46379934453269    1.25084589157215
C         -11.04677783088595  -25.31683335755775    1.01855054318684
N         -12.02352406120293  -25.33100616183114    1.62129578827594
H          -0.32204226586851    3.36625502066505   -0.64852220717886
H          -2.84044663409075    2.59694173889144    3.55123951299742
H          -0.45555250744434    0.99776918320368   -1.19039286898647
H          -2.99920350772628    0.16012660851202    3.01405102530601
H          -1.72883769714618   -4.20135060486177   -1.28202139143272
H          -2.24784986891521   -6.24428195376664   -1.63536688314309
H          -4.62320235437114   -6.56975676349434    2.72985367280677
H          -3.52609036070663   -4.48253412736918    2.06947462867030
H          -2.69298752910180  -10.05580886947603   -2.34054463865296
H          -1.91816068463401   -8.46455512968703   -2.34933155209056
H          -3.52896430717444   -8.66785164951258   -3.06853218788373
H          -4.32038686258210  -11.35782525132503   -1.41197706832484
H          -6.33145498087974  -11.44654853624976    2.36738839238791
H          -5.64851866253924   -9.13997764837588    2.84771867185072
H          -1.64133783095105  -14.21588603035168   -2.11960016232454
H          -2.40600190142764  -15.39493806227488   -3.22308409651627
H          -1.73725816134735  -15.94176135991061   -1.67599154519890
H          -5.19531167844433  -17.82358532043914   -0.43426313934907
H          -9.93706022064636  -18.72496475455662   -1.66432987719364
H          -9.17898612510258  -16.44489843856999   -1.17275541282837
H          -4.04384293456991  -21.19993599151551   -1.49337413523952
H          -4.43627894687041  -21.27254137047766    0.23828914570687
H          -4.08649727775431  -19.71269093859467   -0.53217969964754
H          -5.56752971541331  -23.29060481343994   -1.24235168603046
H          -9.70222572353310  -23.87183758669535   -2.21276413143527
H         -10.13168709657275  -21.45220036230702   -2.06419469670488
H          -6.44629071486453  -25.47224039543851   -2.19646138047469
H          -9.03876903283940  -30.09505342301064   -2.67826831140354
H         -13.94885074358793  -28.80652162761130   -0.42022116559568
H         -10.82321599453168  -31.83178409438849   -2.79660445946926
H         -12.21196375736410  -27.09270682406443   -0.26910156725890
