87
 SCF done       -185.174073485660          0.000506461943
C          -2.20652879362961    1.27263085896620    6.69517324425625
C          -1.99094449842764    1.36365441214334    8.04182119551520
F          -1.69959793234811    2.54527312416047    8.59851425742468
C          -2.07172735052211    0.21892539184122    8.86049253918863
F          -1.85597354903607    0.33790945871391   10.17644491609945
C          -2.36608867802473   -1.00170297902061    8.32045213071810
C          -2.59253340790389   -1.12777914309056    6.93616236919826
C          -2.51287854480679    0.02883403506088    6.10736475713050
C          -2.73863458583016   -0.07238909683678    4.71537565195854
C          -3.03362879242328   -1.29320683455703    4.16723381715479
C          -3.10457948598027   -2.44266609488919    5.00310918730565
C          -2.89459764953136   -2.37681895983690    6.35049379024291
C          -3.41828410155387   -3.62105664547903    4.17906140444008
O          -3.55752890375956   -4.76319405139507    4.57582483444030
C          -3.52005709198481   -3.13795616243687    2.79367138879619
C          -3.31092099382714   -1.69902138821220    2.79105427888872
C          -3.37923633604003   -0.85047407975286    1.71799868236457
C          -3.66965967242272   -1.22069838541028    0.38739857591639
N          -3.90166657845272   -1.44077194433811   -0.71559582803214
C          -3.17591977049279    0.54437990941808    1.80138824175358
N          -3.02249483598246    1.68162461604569    1.80236011106374
C          -3.74365203088549   -3.91819439828636    1.69218971454387
C          -3.96140791849358   -5.30467806317897    1.58147996936611
C          -4.15439540002471   -5.90888379110241    0.33847240295726
C          -4.36577550980014   -7.27192638318127    0.44830304833873
C          -4.34252585735768   -7.73507676338710    1.77577786260575
S          -4.04327241312457   -6.46416207203259    2.90053004838826
C          -4.56630842740480   -9.10959556448542    1.88406946831712
C          -4.75808658275883   -9.69708094009175    0.65304648176312
S          -4.66302072315784   -8.55701699942901   -0.67140111454516
C          -5.02516197922671  -11.08595919738230    0.40085885654935
C          -5.18733667511340  -11.61733738110366   -0.83953019437181
C          -5.46045898229566  -13.01100074187475   -1.00379203077532
C          -5.61648384004412  -13.59291777394068   -2.24869130858782
C          -5.87987360281497  -14.96511047620542   -2.39242143412000
N          -6.09176044802898  -16.08908470183910   -2.49757846567477
C          -5.51361337597084  -12.84470811786072   -3.43286957982986
N          -5.42632327120641  -12.22601659576425   -4.39657704807940
C          -5.56220551010420  -13.76426052854621    0.20735716325230
C          -5.38560050909573  -13.16238362487845    1.41244959619728
O          -5.10750853462708  -11.83674460431748    1.53273992506615
C          -5.47085889012211  -13.84849767868138    2.67244061413924
C          -5.24595514807130  -13.30733723022305    3.91952399263011
C          -5.42809014814955  -14.25630307238746    4.92592367711912
C          -5.79040176038712  -15.52481655479504    4.45274647190333
S          -5.90738181349493  -15.54007011280133    2.73176626924985
C          -5.96020523245289  -16.47549483937141    5.45755740790303
C          -5.77296552881527  -15.93697818370448    6.71511178366273
S          -5.31465364748430  -14.23943208904152    6.64396557510163
C          -5.83357045334661  -16.65763118516707    7.93611735352786
C          -5.99355326244677  -16.19258965561307    9.20110857692829
C          -5.56885583923844  -17.03668664210350   10.35621170452088
O          -5.31791273317832  -18.21750847258533   10.33438272622286
C          -5.46087140174168  -16.09977847154150   11.49285189025935
C          -4.98629864530142  -16.33085502125517   12.75209846736358
C          -4.94825357134138  -15.26442814023177   13.67803735170044
C          -5.39916138210053  -13.97238694808742   13.27802449452350
C          -5.34787081280471  -12.91142810899906   14.20440152418654
C          -4.87539791385515  -13.12342098747386   15.46907362973037
C          -4.43307306430559  -14.40228475262909   15.86485026433041
C          -4.46842499532397  -15.45108690930667   14.98922802239068
F          -3.97481663448701  -14.58040436491630   17.11008360262975
F          -4.82717847226517  -12.11443985528191   16.34720189484744
C          -5.89486779664395  -13.76465338089785   11.97077613843124
C          -5.93106760864406  -14.81524807661690   11.09377712206548
C          -6.41948180017708  -14.90864221769563    9.72177561164298
C          -7.34338020462094  -14.07690333069620    9.14905367268159
C          -8.00660270487757  -14.37933702859972    7.94071202284716
N          -8.59534387686691  -14.62361907321611    6.98651866225262
C          -7.79726839566515  -12.88350970670656    9.74691646557128
N          -8.17733121218385  -11.89504421970102   10.18842735255495
H          -2.14145410700282    2.15881410914110    6.08354721088496
H          -2.42412169781118   -1.86821925879613    8.96015690623606
H          -2.66932840970135    0.82224698229665    4.11866793830114
H          -2.95680747313953   -3.26585870069847    6.95922573598866
H          -3.75636173873950   -3.41675815865902    0.73201026233820
H          -4.14002516888480   -5.35992416971692   -0.58549815153742
H          -4.59104123419908   -9.65512073646302    2.80851644567872
H          -5.11019628362667  -10.98456787921303   -1.70964522825477
H          -5.77938396947202  -14.81973264418953    0.15978699059901
H          -4.96970053305142  -12.28257064600945    4.08070327462875
H          -6.24113199675319  -17.49898851378143    5.29198157937276
H          -5.65073145620274  -17.72522408912094    7.85411755882641
H          -4.64397807778365  -17.31366784076288   13.03813459531002
H          -5.68658117421117  -11.92770214991020   13.91927238103550
H          -4.12608774142246  -16.42325447694010   15.30755067195151
H          -6.22438084332190  -12.77704283887119   11.68934457840818
