101
 SCF done       -208.728603702590          0.000528686496
C          -0.81303331252136   -4.90769588554544   15.18823748366314
C          -0.05517568796112   -3.79402475964855   15.41750730081741
F           0.43409129505038   -3.55232704112650   16.64087512001309
C           0.22191828060663   -2.88747553680108   14.37437336565216
F           0.96881214332784   -1.80422322740446   14.62812035830856
C          -0.26349711735640   -3.10723591345351   13.11595156369956
C          -1.04786260218111   -4.24598451435849   12.84769290605898
C          -1.32917181851925   -5.16330154224381   13.90166009865681
C          -2.11682585704035   -6.31109074037919   13.65732955264320
C          -2.60666121298399   -6.53406161558226   12.39714154548574
C          -2.31327689373063   -5.61902637598214   11.34999295024211
C          -1.55888968568740   -4.49998844727840   11.55577746014088
C          -2.93394827631583   -6.08347839580318   10.09218920232891
O          -2.90444289568838   -5.48960864713589    9.03573153813295
C          -3.54591373195758   -7.39767365021752   10.41195386325457
C          -3.44010823511609   -7.59880573686740   11.85157920988009
C          -4.09083822306553   -8.55037232969743   12.59051864534369
C          -5.01745127942356   -9.49353724735498   12.09262207402950
N          -5.81082199004031  -10.26764958315445   11.79291497288401
C          -3.96668979359422   -8.67425057256838   13.99099991093470
N          -3.90114596138699   -8.82723664783985   15.12671389849609
C          -3.98827336292802   -8.37531470647209    9.56756641754976
C          -4.24989272056147   -8.40602431166705    8.16782588956348
C          -4.35025672269411   -7.32371341138067    7.28865321329885
C          -4.68409361135077   -7.47695768324014    5.95071627333324
C          -4.94983149968378   -8.71606385392189    5.36403584434304
C          -4.89875646378770   -9.83055148674346    6.23122750056506
C          -4.53564730305013   -9.67479379146375    7.60135136342165
N          -4.55737081666878  -10.89352969146245    8.15723671047369
N          -4.93121837059756  -11.68334016189983    7.18739985330717
N          -5.16146382136118  -11.12875282902404    6.03722130925019
C          -5.05823071569074  -13.09540606591651    7.36299248784067
C          -5.25116469653017   -8.86461917964697    3.97927383414085
C          -5.17713412768552  -10.02207361029381    3.19634267760512
C          -5.66604485181251   -9.82831025997757    1.85129443621128
N          -5.63545612270058  -10.82806270977196    0.96815464611413
C          -5.23100149906334  -12.00105180582613    1.38957515983872
C          -5.26347033058444  -13.12372217919484    0.42153270247685
O          -5.84773318833441  -13.06462076067047   -0.64126913200049
C          -4.56453268953818  -14.34491958940656    0.86028975159041
C          -4.07904335926923  -14.51334945261379    2.09420762721910
C          -4.18689690912614  -13.49710620609359    3.15632904539786
O          -3.88919773448288  -13.73831410476499    4.30898300534305
C          -4.71957330408043  -12.18546471897711    2.71687137129140
N          -4.65690643846587  -11.19225516953835    3.56992249769306
C          -6.09297231309584   -8.51779818755854    1.60879361981392
S          -5.86172774276855   -7.55341448358734    3.02869145875138
C          -6.68594217842883   -7.97383356087088    0.43197194310869
C          -6.71317037908099   -6.60316853544609    0.17226692526312
C          -7.25914228821583   -6.07577546665505   -0.98652665884099
C          -7.79963084209288   -6.86003278767051   -2.00991945670328
C          -7.82011274866613   -8.25190016519673   -1.75694964079390
C          -7.28540318507479   -8.79432299938096   -0.54821327336465
N          -7.50470611257971  -10.11387957202144   -0.57460875497347
N          -8.08749347064385  -10.32859931528410   -1.71002785972511
N          -8.31661981494701   -9.28171074119530   -2.46009566187002
C          -8.41975311633196  -11.65291810718831   -2.13222501786962
C          -8.35953798913193   -6.22582267738667   -3.16021119919283
C          -8.69334716671336   -6.73217389241439   -4.37615363782996
C          -9.67115518881636   -5.98913139007803   -5.22178354592838
O         -10.01865920113548   -4.83892327557700   -5.09183790786661
C         -10.16422132098531   -6.98307533457682   -6.19810796645091
C         -11.17456928152877   -6.86239156792403   -7.10778866543289
C         -11.50643571749482   -7.97249489829764   -7.91676540618338
C         -10.77907768475593   -9.18909496697457   -7.76729060365148
C         -11.12376093629097  -10.29525065526630   -8.56989741851043
C         -12.14082340008451  -10.19834946853350   -9.47743510872464
C         -12.85814665478334   -8.99444602651142   -9.62526024789837
C         -12.54777406969431   -7.90364172053034   -8.86265005857465
F         -13.85219502959225   -8.92870546676869  -10.52184104906380
F         -12.46778173474996  -11.25258081291379  -10.23712934924614
C          -9.72844323607942   -9.28000605930384   -6.82564651432706
C          -9.42447795226709   -8.19196535539926   -6.05222347080367
C          -8.40506779970489   -7.98902191104106   -5.02800526920088
C          -7.27386721265867   -8.74068225295960   -4.85817347745815
C          -7.04940351041502   -9.97119672849705   -5.50428904214237
N          -6.85058809543926  -11.00027776300837   -5.97337166599954
C          -6.19244768962937   -8.32751155738976   -4.05261364150418
N          -5.27884040656890   -7.99833036236511   -3.44140621707249
H          -1.01726191586123   -5.59052773251720   15.99810740637973
H          -0.04237983142076   -2.40403367601771   12.32834072316268
H          -2.30738837482576   -6.98878929469899   14.47359630454096
H          -1.35399180953689   -3.81968782984629   10.74311793042050
H          -4.17452547891624   -9.34307644775147   10.02162753669776
H          -4.15524386933432   -6.33081374130190    7.65769353225354
H          -4.72590700381988   -6.59668444440625    5.32493288163549
H          -4.51726499974896  -13.38140245098444    8.26155268946821
H          -4.64726582989285  -13.58696835671256    6.48025803337794
H          -6.10968806078904  -13.36756851631788    7.46794869423133
H          -4.49761033414458  -15.12785142964656    0.11687698057033
H          -3.60241781639486  -15.43831400198269    2.39002940025671
H          -6.27479855551897   -5.93184924677800    0.89661262755082
H          -7.23441080111679   -5.00496969104857   -1.12584345283742
H          -7.67627082294364  -12.33172143174259   -1.71356784004521
H          -8.40667051025202  -11.69049877479705   -3.21958245968479
H          -9.41186993018710  -11.92912292056014   -1.77105171898436
H          -8.64077803700999   -5.18579228676563   -3.01762923460901
H         -11.71742151823345   -5.93465707157922   -7.20653739528486
H         -10.58317561644296  -11.22369943622241   -8.47198467883671
H         -13.10656255978484   -6.98935044539668   -8.98730315755703
H          -9.19663733802915  -10.21312655576856   -6.72897846889623
