142
 SCF done       -273.077021881621          0.000672593603
C          -4.71819486168685  -28.99699774052310   -3.91567257103807
C          -3.41952732536087  -29.25932878683598   -4.24997866402920
F          -3.07272669947809  -30.47036735274476   -4.70828480031292
C          -2.43006026964214  -28.26504681350237   -4.11754012051626
F          -1.16294041293507  -28.55098879613330   -4.45113240727226
C          -2.75329474945568  -27.02101982871514   -3.65351205709678
C          -4.08285824119892  -26.71990082095407   -3.29994547667548
C          -5.08451691885739  -27.72441358651908   -3.43284821870045
C          -6.42569939242917  -27.44617791061523   -3.08289329649916
C          -6.75378606945844  -26.20207411621607   -2.61182675864291
C          -5.74668102564491  -25.20960518791088   -2.47586593678288
C          -4.44481670244645  -25.44544481157428   -2.81021664252930
C          -6.34013620510896  -23.97144707312472   -1.92905337434351
O          -5.73772341716183  -22.93451528512741   -1.74198868946624
C          -7.75948389872523  -24.29353885650844   -1.66136418600159
C          -8.02329084392003  -25.62792603789549   -2.17534166622422
C          -9.24341598421170  -26.23886767676678   -2.30701583981381
C         -10.49719439037282  -25.67306588414667   -1.99037211285274
N         -11.56212327892955  -25.29526484454478   -1.78447246741001
C          -9.41971683047934  -27.53566184810001   -2.83393942029123
N          -9.62996085424810  -28.58678665559630   -3.24560523543269
C          -8.67648098027540  -23.57624795027577   -0.93803209170640
C          -8.61637954233188  -22.28711268076783   -0.37313711274926
C          -7.71985509562470  -21.25332052117912   -0.52218165787973
C          -8.04226136799542  -20.10545358770288    0.22196648487207
C          -7.30660219132642  -18.89872732679882    0.31326371512847
C          -6.13943558967648  -18.64072216395972   -0.49655648332305
C          -5.00723867058682  -17.94885422895464   -0.15482407923944
C          -4.07932268610628  -17.84404592774649   -1.20570592907223
C          -4.49729150199556  -18.43305674079654   -2.36144518463177
S          -6.05711938609956  -19.15161006231308   -2.16231831913452
C          -3.79049791890859  -18.52001912707938   -3.66533437402378
C          -7.78183472973032  -17.95408002477940    1.21890626004692
C          -8.95185866513526  -18.14445423741432    1.99448054573115
C          -9.69907169784563  -19.33587051251444    1.88933075916984
C          -9.22539599010668  -20.28267131673864    0.99278413442201
S          -9.93236938424659  -21.84414219009110    0.71406662355846
C         -10.89001676254694  -19.55494997886609    2.68709920038793
C         -11.07530281328496  -19.31131378436588    4.01820085249943
C         -12.36594895118994  -19.65133986300561    4.47211840137108
C         -13.17092287075515  -20.14662698692562    3.49349861886801
S         -12.33675239047466  -20.21435920464607    1.97551799765609
C         -14.58376791027295  -20.59631579626144    3.59337503002268
C          -9.24349208407388  -17.00661514998357    2.78044447207456
C          -8.34294314913214  -15.98909333748882    2.63463902820968
S          -7.08635837694302  -16.37847313171661    1.49408457282009
C          -8.39260629523373  -14.73848836539650    3.34678818344468
C          -9.43813814318610  -14.30333908339726    4.12364967573690
O          -9.16380195001200  -13.11926932076373    4.68823213601386
C          -7.93423229144125  -12.77206021630930    4.31087108155091
C          -7.38674008794969  -13.71790710949399    3.48134345467310
C          -6.08994194334138  -13.62496089760232    2.79927464510483
O          -5.90122528211299  -14.07304409080533    1.68160744887734
C          -5.02053688364558  -12.93325259835015    3.51336133478047
C          -3.88395685233699  -12.41325553732505    2.93701630052673
C          -3.00645561427625  -11.84279045448593    3.85918474838577
C          -3.44593465149234  -11.95189087223982    5.16096095635748
S          -4.98778007396327  -12.74668728731823    5.23863363793899
C          -2.78216760772745  -11.51851479723971    6.34522755216981
C          -3.12745132619629  -11.78213065983546    7.63971653779596
C          -2.23871827831192  -11.22777761928379    8.59035637306186
C          -2.31712939072509  -11.30669725851961    9.99804958942918
C          -3.27064631691654  -12.17509759089929   10.65141742701750
C          -3.66337754556935  -13.42774480186540   10.26407958606476
C          -4.56164768846337  -14.03415930026464   11.16212984292471
C          -4.86440066430032  -13.25495217923461   12.23644839575226
S          -4.02808514720273  -11.73863416771149   12.15910497100323
C          -5.74854106928379  -13.56870994571310   13.38800962578313
C          -1.38551012876362  -10.55599778055975   10.70403622803181
C          -0.35593121740833   -9.79847159597755   10.08822248292976
C          -0.24953284378956   -9.75782701604993    8.68040855182973
C          -1.20331917069701  -10.48375826126706    7.97357088504545
S          -1.32803589928982  -10.55149657152309    6.23573579073325
C           0.76626518623976   -8.99361661608755    7.99114566934614
C           1.44169182319729   -9.32791046124238    6.84917554853385
C           2.32702641280475   -8.32608085794326    6.40898274405978
C           2.32515490327145   -7.21410272324389    7.19449878095387
S           1.22603602902498   -7.39609971380803    8.52085657792676
C           3.11555394930032   -5.96633141306627    7.03791597667899
C           0.50018817156448   -9.20895047847241   11.04233837893809
C           0.17357954512331   -9.49982075539460   12.34185744684654
S          -1.27759733421022  -10.47995508215177   12.43725975015835
C           0.84189070703881   -9.01207655805860   13.49430304393171
C           0.76753550606980   -9.46956040973097   14.77176057940665
C           1.13524020057941   -8.57848457476317   15.90584062270254
O           1.76197359849867   -7.54682431498344   15.84798879444864
C           0.50939869946126   -9.19727725742287   17.09434788919776
C           0.43462443088600   -8.71885942998663   18.37058999520360
C          -0.24435892014454   -9.47772935065462   19.35035578210789
C          -0.83849869318128  -10.72103747175988   18.98578233482633
C          -1.51905707438754  -11.46896845547504   19.96759498861398
C          -1.60339617859565  -11.00657888241514   21.25066426750013
C          -1.01437826806056   -9.77784787018804   21.61045133368324
C          -0.34868979698425   -9.02863043509419   20.68134538078722
F          -1.11399986519488   -9.34850521689390   22.87595707736916
F          -2.25018679829987  -11.71987131286564   22.18224468126797
C          -0.73813885973339  -11.19566473843060   17.65815365508359
C          -0.06925685948551  -10.44666392750843   16.72786086844349
C           0.23145526039154  -10.69761302827697   15.32227999415367
C           0.26414367858921  -11.92751813357194   14.72101860133856
C           0.88768043902378  -12.15573855990507   13.47498454994465
N           1.44971261174534  -12.38701474288767   12.50133936538503
C          -0.23690552271454  -13.10222840690778   15.31489569605144
N          -0.65897738837390  -14.07739760490070   15.74928593840089
H          -5.46383785171523  -29.76910068533527   -4.02391302288586
H          -1.98411995507183  -26.27078512898509   -3.55717177205974
H          -7.15735010495035  -28.23012307626250   -3.19018084351654
H          -3.70134067606232  -24.67098341017674   -2.69783359747709
H          -9.60889345746572  -24.08555848017138   -0.72102291981650
H          -6.84486650867134  -21.34702205315096   -1.13669416817719
H          -4.82648628676978  -17.55910720407450    0.83008024760996
H          -3.13188916060407  -17.34430031589587   -1.10921521699414
H          -4.38628278052438  -18.06766753272982   -4.45780735874425
H          -3.61502942682785  -19.56124854699823   -3.93535012175525
H          -2.83445292796444  -18.00545642512849   -3.60634326249103
H         -10.29706601595179  -18.94151787531685    4.66217084069553
H         -12.68305556910177  -19.53504871343823    5.49359762232248
H         -14.68372113177075  -21.62510721755776    3.24937749868180
H         -15.23010792804394  -19.97508059584171    2.97328080600417
H         -14.92266392658755  -20.53437027221337    4.62476457555106
H         -10.09961487497771  -16.94335830507738    3.42499364088023
H         -10.39929254399409  -14.73129552331075    4.32465017073992
H          -7.56510487386511  -11.82315707125307    4.64678636135988
H          -3.72039409912426  -12.44564762692305    1.87498892247142
H          -2.07238624159889  -11.37578233802718    3.60213573083192
H          -4.01077655001790  -12.33743117708197    7.89769443512454
H          -3.27952439006882  -13.92160153587061    9.38961445834312
H          -4.96535391905265  -15.02051785373544   11.01779974105671
H          -6.35568033547656  -14.44292118392024   13.16480228121857
H          -6.40210881064194  -12.72808335494282   13.61526452350516
H          -5.15246697333330  -13.77873819714613   14.27717433012148
H           1.34031862522085  -10.28038794197936    6.36156504660243
H           2.94526657401692   -8.42694700646648    5.53489891734163
H           3.73307340585909   -6.02770784807725    6.14521637820128
H           3.76104175756918   -5.80825736794236    7.90172826539959
H           2.45780189846615   -5.10160989579989    6.95294896784419
H           1.36716012810177   -8.62590032415710   10.79135595495343
H           1.42103244209839   -8.10476876547668   13.35286138145919
H           0.88744711599748   -7.77413447021799   18.63036781320200
H          -1.97212965707674  -12.41345720468875   19.70984023355787
H           0.09672719057141   -8.09034294207837   20.97269080765787
H          -1.20049831041646  -12.13641462265712   17.40447705148273
