100
 SCF done       -203.550181873116          0.000682205003
C          -8.16275867599105    3.26846086784748    2.82430730148410
C          -8.66420816307813    3.61810761104724    4.04627253032263
F          -9.16133464052242    4.84612099690872    4.24420353510104
C          -8.66601761232197    2.69516886911506    5.11180058881617
F          -9.16444488847676    3.06569017227561    6.29902212595959
C          -8.16584146185097    1.43498758257806    4.94023861026850
C          -7.64159178584650    1.04417664541447    3.69266780153187
C          -7.64059440559878    1.97583238140103    2.61414550854084
C          -7.12155915663380    1.60599064386550    1.35313609746500
C          -6.62326754718927    0.34124471594165    1.17353704893436
C          -6.62483830543265   -0.58035264596882    2.25651043348210
C          -7.11275160278698   -0.24937160572368    3.48767576082301
C          -6.01166211490158   -1.85375073316745    1.82565750010864
O          -5.73718567628707   -2.79098183000808    2.53861110053024
C          -5.68529724188100   -1.66952332350696    0.38402675591744
C          -6.03969952088378   -0.31018567815418    0.00523288338926
C          -5.91256337620516    0.25547869701733   -1.23519588930617
C          -6.30672076647561    1.57428401656198   -1.54891047062438
N          -6.60355384390583    2.63557799407964   -1.86973360686306
C          -5.38314775258274   -0.37956632707560   -2.37919710249099
N          -4.97338435997102   -0.81953351619946   -3.35734976673193
C          -5.03998342717878   -2.57670936675893   -0.39323956591113
C          -4.83734582206600   -3.96455026256933   -0.09041269468388
C          -3.69387235951058   -4.62867249365363   -0.52059102930525
C          -3.44103683293218   -5.96831497132430   -0.22998394202444
C          -4.31967640331656   -6.75246010516495    0.50043277411412
C          -5.51930545657027   -6.12735896852577    0.88618097216595
C          -5.78441631163378   -4.75863350324081    0.59169244886941
N          -7.03340487555674   -4.49612469355481    1.00491432524487
N          -7.45084996201399   -5.61535664452450    1.51326530530924
N          -6.62407377051769   -6.62195619097318    1.47180887028960
C          -8.73777855066099   -5.73528835610343    2.12374627756035
C          -4.06370535170071   -8.16575725624972    0.75749991418039
C          -3.79337369512659   -9.01784688254238   -0.24948670201168
C          -3.67738756085476  -10.42812804523483   -0.03939398519845
C          -4.08124951027872  -11.01510330999791    1.11005188293561
C          -4.60835524027218  -10.14118559226775    2.23173332040294
C          -4.03340662674299   -8.71486144482708    2.17060467026546
N          -4.67970793024798   -7.84146744640843    3.12148661555219
C          -5.91985136491202   -8.00624923953150    3.27327242552700
C          -6.64884698764588   -9.13683124935808    2.65618795780484
N          -6.05930322388951  -10.14413509131999    2.19043275623719
F          -7.97776277585646   -9.08193590495592    2.62487944940022
F          -6.58254406282162   -7.25577116788599    4.14986219364883
C          -4.08954824004172  -12.44703235710385    1.29078481284670
C          -4.85916186575996  -13.07940300553055    2.26405067992844
C          -4.84585253964147  -14.45330456666310    2.46799088201050
C          -4.02004369606330  -15.32381918373027    1.75851286068765
C          -3.26413705265821  -14.71961688650918    0.72643300178786
C          -3.30528417341092  -13.31197328977022    0.49099699389760
N          -2.48456003837380  -13.06440432324766   -0.54327099736420
N          -2.01962216556378  -14.23093615041427   -0.88220609193434
N          -2.43676018138674  -15.25242461852932   -0.18422572497976
C          -1.07212602216511  -14.38877522264969   -1.94203611427638
C          -4.01122328895670  -16.71866247588969    2.06478971449434
C          -3.07315605658120  -17.66583362289359    1.79634417057471
C          -3.45447471820440  -19.10511851893035    1.83865804597422
O          -4.45106976794512  -19.58066589094451    2.33042966175638
C          -2.38321024074661  -19.80917335350250    1.10042514915343
C          -2.30175938145213  -21.12665354906192    0.75381661635296
C          -1.18495271035073  -21.57471010247974    0.01218106474967
C          -0.17348786795749  -20.64255349177957   -0.36106293487907
C           0.93156262535976  -21.09426051381229   -1.11026378777218
C           1.03116425402478  -22.40955649212648   -1.46716666716649
C           0.03342158125338  -23.33142953959788   -1.09285346818112
C          -1.05208730692791  -22.92401176747725   -0.36907044223437
F           0.15766061513903  -24.61574918571519   -1.45545342947540
F           2.08304220970653  -22.83577952914037   -2.17968895984717
C          -0.27880236125122  -19.28632301180532    0.02325855599878
C          -1.36562204092099  -18.87654881155970    0.74807494076940
C          -1.71561544517240  -17.57744343430710    1.31145859859779
C          -0.84553842317216  -16.54100545886142    1.52602660816203
C          -1.13809696416465  -15.44285492420066    2.36011947654321
N          -1.31303184562822  -14.55115812396321    3.06152910458423
C           0.43845428379892  -16.46119420864323    0.95718159047063
N           1.46089159588178  -16.30731744246371    0.45625791929921
H          -8.16917174717956    3.98671252318724    2.01933861724255
H          -8.17305165344919    0.74104621944995    5.76612971099534
H          -7.12853042711804    2.33671381465505    0.56084699863256
H          -7.09636120148224   -0.96708866595627    4.29372405072833
H          -4.61140495737720   -2.24899068790038   -1.33240760573804
H          -2.95014933080085   -4.07024615242411   -1.07029477788688
H          -2.51383809746891   -6.40792777013013   -0.56563049121900
H          -9.38320888206086   -4.95567103028267    1.72673153774199
H          -8.64300202645877   -5.61425554138908    3.20479095536973
H          -9.14407137389515   -6.72364389210649    1.91484914968239
H          -3.73187646470895   -8.65015493884158   -1.26335309908958
H          -3.32836795068903  -11.03941662246991   -0.85583556478699
H          -4.31542302977999  -10.58648955338065    3.19287992155248
H          -2.97355780370983   -8.74436311608824    2.46297775622144
H          -5.52037328639502  -12.48261940254379    2.87124561959285
H          -5.46966452154818  -14.86419973818891    3.24840725764056
H          -0.94720739578604  -13.42578334688954   -2.43077833230853
H          -1.43429490519920  -15.13338024135632   -2.65073116351199
H          -0.11629416177595  -14.72657224160318   -1.53658984896261
H          -4.91385504130982  -17.09687373070349    2.53634847744538
H          -3.07842411407831  -21.81941493166323    1.04019180402724
H           1.70646177392539  -20.40251384638774   -1.40165391532631
H          -1.80740110996494  -23.64231397250287   -0.09117575339400
H           0.49937593859065  -18.60061742830667   -0.27221612228952
