141
 SCF done       -281.973352902659          0.000514717453
C          -8.75412803922303    2.51359956619085   -2.08183955198059
C          -9.02831162323663    2.92684144766232   -3.35532564431961
F          -9.24351215869892    4.22421560402041   -3.61080946820961
C          -9.08840106618149    1.99818466713029   -4.41358112692014
F          -9.35932837588861    2.43172694888398   -5.65238960427435
C          -8.87338291564587    0.66822593234525   -4.18343787514652
C          -8.58862242819671    0.21135942237335   -2.88212052447734
C          -8.52719411911870    1.14914067250709   -1.81107065456069
C          -8.24185341937061    0.71448771258302   -0.49632673041310
C          -8.02444373168017   -0.61748487189879   -0.25913611063279
C          -8.09076457738355   -1.54548536534308   -1.33500242480726
C          -8.36299391013333   -1.15718312697300   -2.61462666100304
C          -7.82824820914359   -2.90330763695054   -0.82250947637140
O          -7.79747524881969   -3.92377156504998   -1.48193493845259
C          -7.61655326765093   -2.75618505166682    0.62724784285118
C          -7.71080668741417   -1.34820825316069    0.96690942611890
C          -7.52128177095745   -0.77267564665554    2.19752606234024
C          -7.18308987217957   -1.44899368504148    3.38821615678455
N          -6.89926470188273   -1.91345596801517    4.40015442295272
C          -7.62618470217927    0.61235938096004    2.44576907798512
N          -7.69590040302292    1.72549543026240    2.71826306581099
C          -7.38734392405873   -3.77263713922764    1.51578297079820
C          -7.26231584546976   -5.15983493540296    1.31316684383228
C          -7.00155747729541   -6.02153848601959    2.36816389212476
C          -6.87989637725262   -7.36500621380674    1.99803063605209
C          -6.64937852597250   -8.48287141755925    2.84460981339139
C          -6.36257719586166   -8.30613466184140    4.24928716996726
C          -5.57841672034165   -7.34922619250382    4.83662669808121
C          -5.50038138227479   -7.47367870574422    6.23582706951129
C          -6.22599869043748   -8.51626949102890    6.72764972286790
S          -7.01387952859679   -9.38555299990632    5.45216989711606
C          -6.38943594496975   -8.94112294498153    8.14184992418646
C          -6.69747228581252   -9.72735216534251    2.23943800264606
C          -6.91131701650960   -9.90558976741744    0.84477765161969
C          -7.12746809624896   -8.79289348690783   -0.00403890019546
C          -7.09346286997723   -7.53949576501137    0.60353316401995
S          -7.38115104191202   -6.02282444754726   -0.20341426571287
C          -7.39429308998613   -8.93641853371602   -1.41551032509494
C          -7.02399759679666   -8.10197852276275   -2.43841429846921
C          -7.48032757319990   -8.52565134610511   -3.69862047598741
C          -8.21843577899146   -9.67110984717806   -3.65481670449068
S          -8.35233927626931  -10.25881286968608   -2.03467449897071
C          -8.85103030734060  -10.41350250915206   -4.77449881755244
C          -6.81384195779714  -11.25779463580064    0.47604160754860
C          -6.57174572939745  -12.11244380998914    1.52575564832236
S          -6.43413234100852  -11.25579694588570    3.04324952497830
C          -6.43412967939905  -13.53128883666001    1.48796508111401
C          -6.52770469750950  -14.31944970046534    0.31707649516250
C          -6.36963463618020  -15.74838945455687    0.36007053670304
N          -6.45823369180149  -16.45963623365984   -0.78220873613698
C          -6.69235431921764  -15.85841009552165   -1.90236391135804
C          -6.85654141007327  -14.45225943508857   -1.94253665490057
N          -6.77158778305865  -13.73130232760893   -0.87334301923102
F          -7.10600832244578  -13.81916468806691   -3.09075091620262
F          -6.77541417429370  -16.59837752335992   -3.00560058153357
C          -6.12739253570275  -16.46754325621644    1.55062432693827
C          -6.04690865365423  -15.68610407436251    2.72452143095229
C          -6.19381628718888  -14.25073914996076    2.67912987457974
N          -6.07849024885561  -13.70304207413166    3.88839900589562
S          -5.81859528308478  -14.85799925194078    4.97026875708756
N          -5.83236616625275  -16.11354973544554    3.97057521904758
C          -5.98111525644344  -17.88548254119529    1.54931079939697
C          -5.78526003052443  -18.68580700222196    2.65065471378331
C          -5.68170550837229  -20.05516441251372    2.34837260749894
C          -5.44529111447078  -21.12266733708523    3.24783898815194
C          -5.39579138188346  -20.94474140052758    4.68074098202786
C          -4.61122752338980  -21.60753366975796    5.58642916714128
C          -4.86914185568904  -21.24468128682492    6.92108174568506
C          -5.85948657556993  -20.31856380728247    7.05018661755144
S          -6.48578899680291  -19.85948883833082    5.50283039913195
C          -6.40642463913134  -19.71641085147957    8.29329912024571
C          -5.30116126918440  -22.37832698601238    2.67382112388588
C          -5.40072827937290  -22.62491626753516    1.27944060142691
C          -5.63375199115924  -21.55420160544924    0.38340558164472
C          -5.78050947583341  -20.29422532019753    0.95331448657234
S          -6.04291114493224  -18.80880700174423    0.07269657462983
C          -5.69167680201537  -21.73377508861538   -1.04921205216639
C          -6.47942144633498  -21.07507555966082   -1.95411682381556
C          -6.22903894663555  -21.44391715601733   -3.28863747302134
C          -5.23983829280028  -22.37012993972915   -3.42217511173671
S          -4.60601475987605  -22.82362734534721   -1.87547311541085
C          -4.70408546103216  -22.98340413257357   -4.66452940887990
C          -5.31084694183611  -23.99948155072136    0.98522452994126
C          -5.17056263521121  -24.80390501430641    2.08936349498079
S          -5.06337159655585  -23.85696625009593    3.56169927670519
C          -5.02995144309176  -26.21353920338513    2.07385851649343
C          -5.18798592693719  -27.09310620883578    3.10000272330713
C          -4.55498327814781  -28.43722752477936    3.03471332909145
O          -4.09255983466766  -28.97861090461289    2.05749441409393
C          -4.55801664905217  -28.92988478772930    4.42945188694900
C          -3.99419288612321  -30.06323427330938    4.93985071908167
C          -4.10529651768863  -30.32266272637117    6.32461411947679
C          -4.79566387577071  -29.39470878382728    7.15752942335536
C          -4.89664387323942  -29.65759554723023    8.53848769115180
C          -4.34305064567166  -30.78972738644939    9.06681322377281
C          -3.66301119677648  -31.70780966935468    8.24206146720245
C          -3.54558227870590  -31.48026494147299    6.89962652692273
F          -3.12948352036117  -32.80995794264461    8.78766224171599
F          -4.44205972321946  -31.03815347258555   10.38004801873946
C          -5.37638012410879  -28.23270035741016    6.59979609924917
C          -5.26486162693930  -28.00797572524081    5.25415907854441
C          -5.79630171159785  -26.94614178803916    4.40513226083264
C          -6.87126270058612  -26.15117893338450    4.70550232887185
C          -7.56157115254321  -25.39335837807286    3.73515239476499
N          -8.18692345069181  -24.82942917537577    2.95512721648429
C          -7.46297202537915  -26.08390294063734    5.98164293995724
N          -7.95923960219519  -25.97878930560409    7.01158546027416
H          -8.71143983717371    3.23783321392660   -1.28339438273197
H          -8.92303843431622   -0.03030765245611   -5.00395787379120
H          -8.20455237744735    1.45038038114612    0.29014319203724
H          -8.40594974333444   -1.88465193068046   -3.41089984195063
H          -7.27664764945302   -3.49225045509211    2.55648603558456
H          -6.93079939450218   -5.67087534985247    3.38222288680299
H          -5.03385527871311   -6.60904757612988    4.27818561732277
H          -4.92506976763186   -6.81026910978270    6.85674248828813
H          -5.82194966252493   -8.28365351933828    8.79577265192292
H          -6.03911253414610   -9.96373429055570    8.27873159797206
H          -7.43854213929925   -8.90766919947877    8.43415832519900
H          -6.40886394899436   -7.23190683858685   -2.30031639339132
H          -7.26880350512476   -7.99729356523671   -4.61108016926524
H          -8.62919757794020   -9.92427751942036   -5.71973894284286
H          -9.93250084032551  -10.45735850130555   -4.64597764487623
H          -8.47927166054011  -11.43737128850579   -4.80880824162526
H          -6.89576918171993  -11.62012075670485   -0.52910802776269
H          -5.70440185936035  -18.27112527497885    3.63726767683315
H          -3.84091033753886  -22.30236774333442    5.30416558820695
H          -4.33888472137556  -21.66037734409450    7.75931697908605
H          -5.86738356221726  -20.09536602048077    9.15803716070470
H          -7.46269887448234  -19.96052499849377    8.40446913015995
H          -6.31683655099507  -18.63080895884962    8.26786851761867
H          -7.24233671201976  -20.37358607913519   -1.67154066747983
H          -6.76225654369377  -21.02859875630347   -4.12494757163178
H          -5.17721434536451  -22.53368880645974   -5.53378956013816
H          -4.89399863032565  -24.05667900014368   -4.67753449035236
H          -3.62679559492135  -22.83653621815250   -4.73307573960061
H          -5.40384509628521  -24.40912635510407   -0.00382753034478
H          -4.66953906424630  -26.63963771980326    1.14256864776201
H          -3.47168556326433  -30.75457900805845    4.29633331710233
H          -5.41757155906937  -28.96718638017466    9.18331138855194
H          -3.02185375056966  -32.19280519927342    6.28178804137266
H          -5.88973204233053  -27.54281377389631    7.25075480743382
