137
 SCF done       -264.121668930248          0.000576894751
C          -5.98965981030392    1.30001419612386   -6.77985282453615
C          -5.41850252500457    1.48480323684590   -8.00751929472929
F          -5.32736869063601    2.71518009870010   -8.52982117651887
C          -4.91869387152838    0.38842997590321   -8.73844144613711
F          -4.36373645023855    0.59919317441447   -9.94005003288038
C          -4.99626062287532   -0.87814659195181   -8.23087220166625
C          -5.57773163816211   -1.10089242099265   -6.96768522541036
C          -6.08459694872053    0.00650968427743   -6.22797252087968
C          -6.67134790165576   -0.19177289442970   -4.95718948092139
C          -6.74549714304434   -1.45830982432116   -4.43931102151414
C          -6.23292031456454   -2.55631069351250   -5.18418488399243
C          -5.66564964448775   -2.39796140988635   -6.41520579218898
C          -6.41533780847782   -3.79787246697308   -4.40831821382008
O          -6.10807015956159   -4.91768640261202   -4.76523627020395
C          -7.04078125590055   -3.39306197549703   -3.13765269936320
C          -7.27560937254113   -1.96083111216215   -3.17368117767807
C          -7.88795435806519   -1.19177929484444   -2.21761799175901
C          -8.42099036514232   -1.65178588604406   -0.99515031230716
N          -8.88251261684697   -1.93388732532915    0.01856630334952
C          -8.08408098000743    0.20100701536406   -2.33173769168909
N          -8.27585116409923    1.33261485325019   -2.35915623241615
C          -7.32375130564577   -4.21571737903054   -2.08150976315903
C          -7.10557474174731   -5.59587054443184   -1.90684632184104
C          -7.41608659331708   -6.22202430421239   -0.71078983455247
C          -7.10696592688969   -7.58704897164445   -0.67900998381700
C          -7.31429174968808   -8.50526366235120    0.38195075171646
C          -7.82335241107954   -8.10581214289126    1.67434374142686
C          -8.66568133324544   -8.79977509481159    2.50032041285025
C          -8.91664508160717   -8.14606647816013    3.72118064909035
C          -8.25877306472552   -6.96071070780157    3.84937066189012
S          -7.31777036500368   -6.61938949418254    2.43651840758401
C          -8.27620329298347   -6.00758538629537    4.98832983905295
C          -6.96330007081216   -9.82167217309718    0.12110809262255
C          -6.41116342134076  -10.25846248431590   -1.11211311882999
C          -6.22910615089654   -9.34744199978485   -2.17380131895619
C          -6.56561407933565   -8.02036450759348   -1.92016207476127
S          -6.42647309502018   -6.71719396844415   -3.06511407322386
C          -5.73096955477721   -9.78987459518499   -3.45730478450428
C          -6.04496172378512  -10.93978215336089   -4.13046783086432
C          -5.38839284056221  -11.05564971358574   -5.36946561385915
C          -4.56576928216653  -10.00601892615230   -5.64632812569767
S          -4.60023267861479   -8.83229728130194   -4.37329059682000
C          -3.71241630513256   -9.79175029922057   -6.84353474895159
C          -6.03212651757621  -11.61942404080947   -1.06754982940781
C          -6.29563965556733  -12.22730766510955    0.12813965421825
S          -7.04411165016030  -11.12959205002441    1.27125155837111
C          -6.01762815787586  -13.58259101979040    0.49289179177717
C          -6.31051645398284  -14.10644323486447    1.74030192675765
C          -6.02535509610162  -15.42275680079172    2.11706419269857
C          -5.41376548471749  -16.33567101333381    1.27463862422168
C          -5.10394854276805  -15.84245858646942   -0.02062144690510
C          -5.40172405965993  -14.48741333777760   -0.41507757266159
N          -4.99701254837593  -14.35196103044825   -1.66260475078601
O          -4.48451414891818  -15.52810629979347   -2.02172603465402
N          -4.53820772721502  -16.43539788385192   -1.05132503771603
C          -5.09395991069439  -17.68395639902578    1.64184867975890
C          -5.32406030299688  -18.30670514058481    2.83961878601564
C          -4.86557893505849  -19.64073209591687    2.88399395039745
C          -4.96807943571433  -20.55169922901892    3.95931596065751
C          -5.74751098765167  -20.24350588591750    5.13772979392876
C          -6.95326649425635  -19.59884727506062    5.19705351489379
C          -7.47724368749981  -19.51215967144890    6.50100425688436
C          -6.68056930770466  -20.08363989412546    7.44506381796775
S          -5.25141336060528  -20.75462156510015    6.72846113098495
C          -6.91052430688093  -20.19416839943472    8.90823838748517
C          -4.32921571872103  -21.77135828485055    3.78532126239562
C          -3.70098866834500  -22.16317353442018    2.57375048633602
C          -3.67312784370879  -21.28107873893108    1.46897527832370
C          -4.22956424684607  -20.02079671809253    1.67553202730902
S          -4.28672715831420  -18.73194147805474    0.50243441434544
C          -3.12004906849393  -21.65349000564971    0.18690396570027
C          -2.42973593432421  -20.86916779849858   -0.69814817486672
C          -2.08632873776415  -21.53718252629155   -1.88755356729924
C          -2.52249093640837  -22.82678230481751   -1.93348886756587
S          -3.36083337809661  -23.24922965760549   -0.47875473230312
C          -2.35507053019397  -23.82256785193907   -3.02291782517882
C          -3.13997725827936  -23.45233018118157    2.67441813135464
C          -3.35886484030451  -24.06871596333012    3.88219241875395
S          -4.23487619831939  -23.02451334646332    4.98521314487788
C          -2.84319986624536  -25.33051366350838    4.26566579135511
C          -3.14301577078854  -26.07532565196742    5.36411319239609
C          -2.16945651874819  -27.08177287504160    5.86499993701221
O          -1.23429738028275  -27.55621521279253    5.26339545494054
C          -2.55408325318125  -27.31319374111926    7.27492334644041
C          -1.91061312923721  -28.04541108427327    8.23023224014219
C          -2.44904987577994  -28.09608397641416    9.53594887877823
C          -3.64778013635567  -27.38227638317284    9.82755883648503
C          -4.17350136497053  -27.43155909302213   11.13428309519156
C          -3.54129550176407  -28.15661944829040   12.10474602475078
C          -2.35709084003409  -28.86318153720918   11.81505981972713
C          -1.82163023532947  -28.83480209124283   10.55800780375444
F          -1.75725715277994  -29.56497668150023   12.78704083101748
F          -4.04358225822206  -28.20171696977953   13.34649045622853
C          -4.29854826140940  -26.64052837556862    8.81528173534971
C          -3.76100760749788  -26.61054063496223    7.55697566116658
C          -4.22139040869168  -25.97806452956017    6.32506133828513
C          -5.51329701093776  -25.61746183088111    6.04781913438982
C          -5.96682781616609  -25.34932346862460    4.73766740370238
N          -6.38102215070135  -25.20315401710843    3.67741377304497
C          -6.53474113596859  -25.56394732422924    7.01532218579251
N          -7.38938259390404  -25.47752155069288    7.77695265594619
H          -6.36760090745028    2.15011423218750   -6.23358275186253
H          -4.60864550541780   -1.70687606995120   -8.80242323645793
H          -7.04372254338462    0.66804662567070   -4.42471912790201
H          -5.28586658375783   -3.25056610037445   -6.95735062632235
H          -7.76965166567086   -3.75203136697478   -1.20967757324388
H          -7.86364532806451   -5.68500267207938    0.10592082885399
H          -9.12570866536904   -9.73160271034719    2.22532733956791
H          -9.56466809046555   -8.54373577210614    4.48184137914504
H          -8.91325592831971   -6.38894709094381    5.78259672002543
H          -8.65299102009948   -5.03575465138406    4.67015104123983
H          -7.27093334134908   -5.86019932629530    5.38267065932768
H          -6.75893031860639  -11.65840945620457   -3.77032150477662
H          -5.52277172640798  -11.89107863085544   -6.03335780366934
H          -3.84956921270900  -10.60719498457308   -7.54958628155498
H          -2.66047956630921   -9.74357932481900   -6.56255634666307
H          -3.96875290286604   -8.85276840300936   -7.33293661015567
H          -5.54568558397831  -12.13743687796349   -1.87263465350620
H          -6.78233057827553  -13.45991630951336    2.46603249651041
H          -6.29319260350615  -15.72778644265379    3.11621560320589
H          -5.77870782092448  -17.82127206541712    3.68276338795132
H          -7.47501322023663  -19.24666752156698    4.32519298221373
H          -8.41978273442944  -19.04689759858396    6.72944164467554
H          -7.79969268107011  -19.63465317393295    9.18839613969033
H          -6.05752309182768  -19.80749587404740    9.46446439511416
H          -7.04970243594755  -21.23712030013091    9.19339155668351
H          -2.14051692206449  -19.85543925657257   -0.49015063680654
H          -1.53622774362574  -21.07342665592954   -2.68672590939602
H          -1.81774239282088  -23.37537865141561   -3.85546451703252
H          -3.32448117033466  -24.17247709808613   -3.37634791059912
H          -1.79838996993950  -24.69033696052992   -2.67013100515973
H          -2.59289943204710  -23.93231979636118    1.88362436777313
H          -2.02894291755224  -25.70684009164538    3.65417088857644
H          -1.00197230008340  -28.57831412555158    7.99474819298183
H          -5.08126663090436  -26.89928529013002   11.37189555934624
H          -0.91433375064615  -29.38095476381632   10.35245608410863
H          -5.20136644747942  -26.10377006312679    9.06027213339747
