146
 SCF done       -271.781387011414          0.000847101963
C         -13.91096084596305    0.52245041768386    2.07542500599592
C         -15.21322530911305    0.54463398403718    1.66147361551234
F         -15.92470481190998    1.67767806830611    1.73634787957998
C         -15.82388104910161   -0.61879095236549    1.15267880548782
F         -17.10282869162477   -0.56865691531504    0.75392961345456
C         -15.12365983695327   -1.78923427284220    1.06565201748047
C         -13.78083935392301   -1.84480878994913    1.48630179132695
C         -13.16122222497908   -0.66847540643603    1.99891693314508
C         -11.81359251012960   -0.69970277427970    2.42536174601631
C         -11.10999071555391   -1.87231594226226    2.34446404803851
C         -11.73927940160349   -3.04324432559190    1.84113705148043
C         -13.03649524582611   -3.04344947205627    1.41713542853778
C         -10.78766244022468   -4.17288198447588    1.87688935448267
O         -11.02434118522533   -5.30463028476135    1.50710318844058
C          -9.55697613959455   -3.63542944467271    2.49916309988279
C          -9.73533933195886   -2.20859204450703    2.70051123812984
C          -8.77323519158111   -1.30813940643669    3.07816527414994
C          -7.41519450461155   -1.61122731032199    3.31425603722513
N          -6.29207155641446   -1.76419192269207    3.49872619185045
C          -9.00948105883870    0.07295726268537    3.23991448313856
N          -9.14166894855463    1.20247631181421    3.39743762897659
C          -8.50149108989751   -4.34884960741615    3.00275759358041
C          -8.17858541297389   -5.71187423773425    2.84670345834024
C          -8.57444867600110   -6.64289589519085    1.91415862020221
C          -8.01264820131991   -7.91738142465756    2.10500039485729
C          -8.21244238902296   -9.07320306980455    1.30925355030140
C          -9.17520955922941   -9.08036339949893    0.23337656639697
C         -10.40292468374301   -8.47362365057815    0.18709232654220
C         -11.09354292033882   -8.70828120720494   -1.01578606638201
C         -10.40485069399535   -9.48453907516932   -1.89810297443387
S          -8.87361681465716   -9.96058883231802   -1.24326341417077
C         -10.81339963682426   -9.93009791930445   -3.25518687293392
C          -7.45234065290508  -10.18561881099042    1.64889698389362
C          -6.55654727176203  -10.21618045241241    2.74871247928260
C          -6.37418991351979   -9.07351558159680    3.55687022553414
C          -7.11534860861154   -7.95066126342827    3.20700298433864
S          -7.02815381894929   -6.40034254039621    3.98907803538132
C          -5.45701969623336   -9.04428038391052    4.67747717923806
C          -5.61576189089310   -8.40316314180753    5.87473021610986
C          -4.50432062686580   -8.52861551520827    6.73069492040250
C          -3.48404254156534   -9.25037737687636    6.19310330180435
S          -3.89110604231665   -9.80864716897724    4.60302154510005
C          -2.16300755360279   -9.57642383784574    6.79126936073901
C          -5.96967715388782  -11.48987172891180    2.91393636679074
C          -6.36067102830824  -12.41198390010785    1.98654932809033
S          -7.50749441479338  -11.72976168604435    0.84683079521446
C          -5.94467024722596  -13.78320428273869    1.85620619417292
C          -6.33190984278938  -14.53427782192220    0.75430420433981
C          -5.94046232949614  -15.85193921834893    0.56164011868177
C          -5.13767887621411  -16.50749838757096    1.48208950378095
C          -4.74947839599692  -15.77983676667686    2.63976314417217
C          -5.12692869007478  -14.42653709691489    2.83218731063579
N          -4.70779142109306  -13.78457910436954    3.93886319089815
C          -3.96792724213239  -14.40989503661958    4.81670796380457
C          -3.60710102948732  -15.77572163412882    4.63208505377896
N          -4.00454956653462  -16.40815386791622    3.56105627483388
C          -2.78424074903070  -16.52927944002887    5.61914686858002
C          -3.52079688302672  -13.63778882471800    6.01277860147120
C          -4.69004353774836  -17.86322266182672    1.32251394031732
C          -4.84653104506684  -18.66651236445298    0.22520485202615
C          -4.29215058339884  -19.95663558868259    0.37347174181454
C          -4.27728603573316  -21.01142660779740   -0.56713578825722
C          -4.93792811395240  -20.92887744138663   -1.85282189726496
C          -4.52520325623447  -21.44464402147771   -3.04983506310636
C          -5.44583433283480  -21.24110539053157   -4.09655435911668
C          -6.57219200232496  -20.58367839293762   -3.70981575085134
S          -6.50711396253520  -20.18594323179913   -2.02433428451254
C          -7.75312675500169  -20.20441177284705   -4.52785968730394
C          -3.60381468642093  -22.16271395888396   -0.18037790818708
C          -3.01130054687695  -22.33151638212397    1.09811589561199
C          -3.08807708574252  -21.29700344242102    2.05764394389145
C          -3.68908473465380  -20.11390961762882    1.64566327788849
S          -3.82748868557378  -18.66278417160269    2.60708402983030
C          -2.60008567508659  -21.49436353694709    3.40358915945169
C          -2.72380962219637  -22.61280049743887    4.18271981634962
C          -2.15742306361902  -22.46701374853112    5.46347934499002
C          -1.59367599100269  -21.24524447593054    5.67052408883340
S          -1.76894468138230  -20.23413815327902    4.27190581844804
C          -0.90526715957280  -20.73810427438112    6.88606498485584
C          -2.36457983984110  -23.57654141944144    1.21792556192929
C          -2.50327453391122  -24.39034537192033    0.12043483907798
S          -3.40161741092218  -23.58958853397333   -1.15899303459290
C          -1.90609491130210  -25.66347631529329   -0.03551457405719
C          -2.17711611534877  -26.62832809322019   -0.95699029980588
C          -1.15571857329938  -27.65879374033267   -1.27605880928984
O          -0.16419487874451  -27.92690240508276   -0.63714410651613
C          -1.58235490700131  -28.23103417080391   -2.57182812936661
C          -0.93342823244027  -29.13081572772551   -3.36652600462214
C          -1.52537444740759  -29.51969146130173   -4.58948621437652
C          -2.78122267090626  -28.96209192080352   -4.96795761479946
C          -3.36127189310504  -29.35071027840929   -6.19220461694354
C          -2.72739161968683  -30.25250011372178   -6.99993231368376
C          -1.48693799061252  -30.80456252777779   -6.62370148915165
C          -0.89727158713821  -30.44653035531372   -5.44397354838453
F          -0.88713529906138  -31.68663969377370   -7.43608918960830
F          -3.28237772359808  -30.62133532276239   -8.16303418395467
C          -3.43465146031389  -28.03817670624466   -4.12020619181911
C          -2.84561806009849  -27.68263459099833   -2.93700370703411
C          -3.29369283193681  -26.80645488650923   -1.85864303765049
C          -4.59400361075230  -26.45828175051131   -1.60025608917392
C          -5.00624333104012  -25.91994997698033   -0.36253818855176
N          -5.37339745005806  -25.56040613242017    0.66382376487792
C          -5.66020016808096  -26.70385297042014   -2.48634198568239
N          -6.55119638221971  -26.86342082298860   -3.19253894756047
H         -13.45816110387071    1.42254882332114    2.46099400658157
H         -15.60588400302578   -2.67141250945124    0.67452700611770
H         -11.37501778349701    0.20542193359602    2.81296080909437
H         -13.48931159322506   -3.94648168360545    1.03671699147079
H          -7.82689833100324   -3.81603715196567    3.66345750395330
H          -9.21583192710781   -6.39626397945326    1.09134677425403
H         -10.81917981990299   -7.90674367461496    0.99957810759950
H         -12.07243651004288   -8.31207993000038   -1.21907026013774
H         -11.79174057460489   -9.52463122594973   -3.50124537766803
H         -10.86059573979414  -11.01782608885099   -3.30371547777710
H         -10.09480114935397   -9.59573849922575   -4.00297858625217
H          -6.51616596618083   -7.88660062975692    6.15335857749553
H          -4.46423372271993   -8.09328190059222    7.71329693924710
H          -2.10306250554150   -9.17299986538923    7.79913730541026
H          -1.35610001428135   -9.15048560353500    6.19515509007503
H          -2.01161475871508  -10.65478849655135    6.83317989240442
H          -5.28307831153492  -11.74632838134786    3.69661824401601
H          -6.95901984751393  -14.06734532917223    0.00818167728400
H          -6.27777330150600  -16.36968290487474   -0.32225557723350
H          -3.27736634534746  -16.54493982101242    6.58992192395761
H          -1.81242640213997  -16.05386975353952    5.74287982578941
H          -2.64521614838992  -17.54626809049584    5.26345367728093
H          -3.88758144241467  -12.61750630565159    5.94386265188380
H          -2.43322898525625  -13.62913597576724    6.06976029606514
H          -3.90200000480618  -14.09607051936309    6.92420869747955
H          -5.32598137286018  -18.33594872962261   -0.67693631404224
H          -3.57158855986410  -21.92047340925570   -3.19101767177969
H          -5.27617501142811  -21.57506247692577   -5.10472001442361
H          -7.59761456275137  -20.50037938280006   -5.56242955400363
H          -7.92036087116569  -19.12824786979200   -4.48957742921134
H          -8.65226147039025  -20.69434748782144   -4.15436694316416
H          -3.25197300646616  -23.49381108207213    3.86442843935678
H          -2.17099116296414  -23.24392749230932    6.20728916667620
H          -0.86066724560577  -21.51935170005400    7.64086584646099
H          -1.43637188105211  -19.88063380989296    7.29901809230269
H           0.10896093034849  -20.41846264859242    6.64915478273656
H          -1.81011809451721  -23.87834696045415    2.08815287516299
H          -1.05725758331084  -25.86296727387420    0.61166427356498
H           0.01843830659676  -29.54216430240603   -3.06675431410840
H          -4.31243413454650  -28.94065179690826   -6.49383061237094
H           0.05280930910563  -30.87787326603114   -5.16999204736395
H          -4.38181289242274  -27.62562933294171   -4.43009310459620
