143
 SCF done       -280.038256218523          0.000529593384
C         -18.38393318795614  -23.52144086700152   -4.88958914353665
C         -18.51053817188019  -24.80003743376157   -4.42382647215126
F         -19.53509493005811  -25.56442214774584   -4.82441831394060
C         -17.56928829097464  -25.33057794013015   -3.51890211485785
F         -17.71906787151212  -26.58712770272298   -3.07798285455991
C         -16.51326564312162  -24.57482129195212   -3.09279275905817
C         -16.35521928277293  -23.25394003860486   -3.55503544725362
C         -17.30661981213710  -22.71558978907641   -4.46916846513424
C         -17.17031442811849  -21.39129411117450   -4.94523431471848
C         -16.11453115599121  -20.62766166941369   -4.52072300816890
C         -15.17033996168062  -21.17537259160452   -3.60877474512854
C         -15.27422582959712  -22.44963265370746   -3.13131959225232
C         -14.14197334940814  -20.16267843977680   -3.30687768799656
O         -13.18326722363585  -20.31204180572342   -2.57518941048194
C         -14.52119855535304  -18.95913234840442   -4.06650723958925
C         -15.72170070865876  -19.25404914078779   -4.82854724699020
C         -16.38258459938693  -18.42421255734144   -5.69741989631327
C         -16.02044667668707  -17.09987354106623   -6.02169213167465
N         -15.80110784234329  -16.01989895093321   -6.34680549493397
C         -17.54174181374024  -18.79297961908133   -6.41287112784206
N         -18.48405605918144  -19.02685245932933   -7.02549615464839
C         -13.86889008851820  -17.75607979356539   -4.04632796988725
C         -12.70977247078962  -17.35116036085157   -3.35648050717113
C         -12.22477920014320  -16.05717175250593   -3.46314948500184
C         -11.06455845780011  -15.81370267378594   -2.71945716605968
C         -10.34578207840209  -14.59402188234628   -2.59765269431627
C         -10.79041965925577  -13.36305158753040   -3.21220484124163
C         -10.02512560305301  -12.38113615999271   -3.78102564959897
C         -10.77591332908707  -11.28695984152071   -4.24964806512603
C         -12.11413252471267  -11.41073417103791   -4.03055755995238
S         -12.47569610252576  -12.90971478825510   -3.24276643822633
C         -13.20308287938313  -10.46391743657670   -4.38219986829466
C          -9.19124070577750  -14.64624678597455   -1.83471272287634
C          -8.73927581552117  -15.82267322837195   -1.17219198285529
C          -9.48348304762272  -17.02342411520062   -1.25096855248318
C         -10.62556221841499  -16.98845406593466   -2.05056029566195
S         -11.70136029535662  -18.32961368766233   -2.31565162298434
C          -9.09854349961737  -18.21062348777625   -0.52825072470978
C          -9.23127356346101  -19.52168025693026   -0.91172064030444
C          -8.75881352837452  -20.43168526609340    0.04761450131146
C          -8.28432911894835  -19.83470419488382    1.17967253289623
S          -8.40235143536112  -18.11795645592621    1.07130963047577
C          -7.68047582683472  -20.45929456013862    2.38099840736128
C          -7.52878258652308  -15.61081491323569   -0.49012563337709
C          -7.07453344593388  -14.31524549547361   -0.55915300789247
S          -8.12854490199170  -13.29561317071576   -1.51722481591025
C          -5.90266127127426  -13.82986385797477    0.05309834569847
C          -4.98838773678563  -14.57023357574210    0.81813621860202
C          -3.90067528470237  -13.76497378075018    1.30300384576362
N          -2.92991103811373  -14.27768599348395    2.05844519896432
C          -3.00792062369152  -15.55829239662889    2.34445099415885
C          -1.93643518091142  -16.12573961327800    3.19806082356371
O          -1.03330883653420  -15.45521923594958    3.65466781684155
C          -2.05468350892732  -17.56941473308059    3.46121080600777
C          -3.05940188229289  -18.32550660374837    3.00487343869060
C          -4.16467230681875  -17.80867742627481    2.18330338698043
O          -5.07010620224703  -18.52597742973138    1.79919528683640
C          -4.08748917650345  -16.36690607194794    1.86030089363431
N          -5.05227234842147  -15.87020256555190    1.11268901022563
C          -3.98468421208080  -12.42314833936537    0.92440847558601
S          -5.40540026514010  -12.16679722955808   -0.03499357143096
C          -3.06171831301543  -11.42520541163266    1.29623986234074
C          -3.12830716293074  -10.07055949991124    1.07542841451188
C          -2.03964710510983   -9.36490934538538    1.62225155574805
C          -1.81481604280811   -7.96803044352303    1.58610843873233
C          -2.82544174552800   -7.06204436319723    1.08846442535099
C          -4.17807250438004   -7.11826737298059    1.28848950199429
C          -4.87732917841007   -6.06385015696316    0.67137278015634
C          -4.07044286377103   -5.20245907960414   -0.00771562240289
S          -2.40835274446701   -5.67760623875834    0.11525872892831
C          -4.45072435329627   -3.98916118958310   -0.77595823711875
C          -0.59012289350276   -7.53526360977161    2.07374257017985
C           0.39012133845384   -8.41604336843387    2.60981737564459
C           0.11769480850928   -9.80038818281258    2.75504387068693
C          -1.10076058419459  -10.23407407169236    2.23932050701653
S          -1.63996864688741  -11.89435499055916    2.19455313033584
C           0.99345718677180  -10.70590527495729    3.46169356634125
C           0.62333298971332  -11.77332343417192    4.24028407403492
C           1.70310209464744  -12.43628430264996    4.84762582443571
C           2.91741650573578  -11.90427794008211    4.53681308202862
S           2.73460029533145  -10.55337535226705    3.46886222403658
C           4.26216739056410  -12.28794409295181    5.02890077327189
C           1.52857128544519   -7.71727532035441    3.03720810380345
C           1.44338229367712   -6.35073498072413    2.91146526429544
S          -0.07234490917415   -5.87643245491961    2.16895654278088
C           2.40765526840602   -5.37149615351393    3.22954611853072
C           3.58965421567593   -5.50103352470734    3.90192419440776
C           4.62180227476051   -4.44549364499067    3.70760995504712
O           4.45259581127265   -3.33901304782486    3.25080877480874
C           5.89501432115209   -5.06513587035277    4.13131034693968
C           7.16342602261544   -4.57126935235883    4.03613814550951
C           8.24595449884053   -5.37129036376491    4.46706477735615
C           7.98963008013672   -6.67349258988281    4.98594738604914
C           9.07468123188634   -7.47080805114459    5.40182443499770
C          10.35311541565645   -6.99661306228962    5.31061645281133
C          10.60515529418716   -5.70763196796557    4.80049051030681
C           9.57443099917230   -4.91072742297992    4.38731864639419
F          11.86913593127238   -5.26854903533270    4.72208033041306
F          11.38297153231427   -7.75718618981981    5.70680066058439
C           6.66304158857543   -7.15279436465652    5.08403347807133
C           5.63000795119678   -6.35681410296969    4.66823342077597
C           4.18293841248417   -6.56411820282422    4.68190412707521
C           3.53448500597810   -7.46754695290079    5.48683711137687
C           2.14391187921719   -7.44367154464265    5.71907745015721
N           1.02249772951408   -7.43304861288605    5.96225159193379
C           4.17904602657159   -8.49852850026644    6.19465432570326
N           4.64644875201768   -9.39204003395518    6.74578367519373
H         -19.11349505918920  -23.13103170067398   -5.58187200989585
H         -15.80121059846809  -24.99505266130596   -2.39988650952119
H         -17.90934041937492  -21.01585195366672   -5.63398195121527
H         -14.54208327037593  -22.83686947149189   -2.43913722283787
H         -14.29564863062181  -16.96053325875224   -4.64533500543855
H         -12.71046775917902  -15.32412637642731   -4.08166763056282
H          -8.95966515842849  -12.45734197935001   -3.90039575588610
H         -10.33606132969509  -10.43389514683200   -4.73484490620124
H         -12.78959436996228   -9.59193842624367   -4.88311794123968
H         -13.73401371553277  -10.13761532197631   -3.48800284722969
H         -13.92752131872828  -10.93971497483836   -5.04272485895285
H          -9.61249067068454  -19.82423214399100   -1.86976659725617
H          -8.76766339190601  -21.49766407419333   -0.09466515120138
H          -7.66734343864889  -21.54154338683092    2.27860672296472
H          -8.23603748333254  -20.19270792357566    3.27994060937161
H          -6.65934502247234  -20.09487969341011    2.49797900330924
H          -6.97079233093517  -16.36234287581895    0.03639767453002
H          -1.26400731504949  -17.99188032448911    4.06651258481903
H          -3.10941681633104  -19.38335274947080    3.22669513361697
H          -3.92645222385492   -9.61439658164288    0.51801934241542
H          -4.65088370161699   -7.86535443160071    1.90056372431770
H          -5.94485736919630   -5.94687494426296    0.73232170679891
H          -5.53090678453217   -3.86542688803090   -0.76584002122121
H          -4.11357592938109   -4.06579513283355   -1.80922337015010
H          -3.99087634378509   -3.10150407088398   -0.34215971007483
H          -0.39778673227760  -12.05592318309110    4.41551408174617
H           1.58001378295871  -13.28394202783358    5.49683612051170
H           4.21544564475778  -13.25125792392398    5.53034038976988
H           4.62115089469616  -11.53939030334050    5.73979774299761
H           4.97796062087396  -12.34243240456882    4.20996480094687
H           2.41991044904434   -8.20245018602380    3.38013170666198
H           2.23521437554533   -4.38446088754756    2.81101413660044
H           7.34006912329700   -3.58497820211644    3.63492926064847
H           8.89936146317571   -8.45882086710449    5.79801759813233
H           9.78390281415292   -3.92659845275335    3.99832923705567
H           6.49810828242438   -8.14405991457091    5.47506506283207
