143
 SCF done       -271.965922593581          0.000629408311
C          -9.94958215471087    0.87610240770206    8.69355825040170
C         -11.21657082522755    1.09166840078249    9.15792508329756
F         -11.50174042348270    2.20530016273872    9.84602368807862
C         -12.23748867162952    0.14925571483875    8.92154743980400
F         -13.47092012344040    0.38641709741238    9.38938829233793
C         -11.97668885131614   -0.99649695085106    8.22399064084256
C         -10.68058368519826   -1.24816589527250    7.73362705300549
C          -9.64738703193950   -0.29571319687062    7.97065840112228
C          -8.33894671776787   -0.52632219864431    7.48770708559339
C          -8.07146169062711   -1.67710017300724    6.79339919097075
C          -9.10590663050415   -2.62516375634959    6.57098181820061
C         -10.38054285105137   -2.42743999198464    7.01701467546332
C          -8.56748905011504   -3.78291635586062    5.82872705274766
O          -9.22535228159619   -4.71547729004825    5.41764010810454
C          -7.11122601568355   -3.53633504763340    5.70723481168914
C          -6.84557566379726   -2.18719032051062    6.18687696165598
C          -5.68561313245575   -1.47234758770836    6.04501825206327
C          -5.51126326333080   -0.15690172184685    6.52581816048958
N          -5.30606624498571    0.91128279576360    6.89246997426925
C          -4.52216720158462   -1.90192983771855    5.37027510366663
N          -3.54491165408340   -2.15462883451516    4.82252035496539
C          -6.11921868560145   -4.40847755891652    5.35032696566779
C          -6.16455051262519   -5.75060851984887    4.91650019573107
C          -7.20527725597319   -6.58072721265702    4.57536041694648
C          -6.80376923574201   -7.88070709596172    4.21540789087891
C          -7.63448380267849   -8.96759088035603    3.85663596559356
C          -9.07696337305988   -8.88695207202813    3.86935709098323
C          -9.95702169774015   -9.45659046822506    2.98713330511219
C         -11.30348196128312   -9.21924695054866    3.31451179084106
C         -11.46402710862073   -8.48869571791276    4.45413019287156
S          -9.93652280175584   -8.06067909723037    5.14057829112205
C         -12.72734069744306   -8.05227292767848    5.10247752307681
C          -6.98189600617297  -10.14838813897144    3.51952829826027
C          -5.57539009920850  -10.30217684814338    3.55291286961295
C          -4.74529714202962   -9.22918837684853    3.92908106062333
C          -5.39056172042450   -8.03472444261373    4.23868886795497
S          -4.61157086018404   -6.57034907320021    4.74996552513602
C          -3.30423180058137   -9.34727366612514    4.02620564035750
C          -2.36036208383095   -8.41468835129040    3.69962661229084
C          -1.04104333271152   -8.83282236444443    3.96435654674419
C          -0.96243677041915  -10.07697515960094    4.50745044921653
S          -2.54132193402684  -10.76965117575998    4.69188059641789
C           0.24615864326981  -10.83955720034225    4.91420351844315
C          -5.19000174508222  -11.62379341124499    3.20045249717309
C          -6.23959950292500  -12.43879832056576    2.94055287325404
S          -7.77381866121952  -11.64108202172364    3.08764575218146
C          -6.15125151438375  -13.91134692363195    2.66086491104210
C          -7.29172086379912  -14.40802814981117    1.76651610795848
N          -4.90855554412605  -14.12239164523149    1.90753748999874
N          -4.00218766714610  -14.85271199374268    2.20923332781185
C          -3.93018284762876  -15.72544055431511    3.39394906284205
C          -5.03929443693139  -15.45885928190908    4.33920631293422
C          -6.12630756106115  -14.61527730590373    3.97039328403185
N          -6.95166454217326  -14.56503227869388    4.97587595922422
O          -6.42473107439737  -15.34119251402938    5.93300175802425
N          -5.26022395586691  -15.88545289594128    5.54917627283512
C          -2.55316937325114  -15.50111402234449    4.03003001157198
C          -4.04905627001629  -17.11314654760060    2.83146482917745
C          -4.75760185486155  -18.15531014396558    3.32446738390181
C          -4.66840005115470  -19.31994834805516    2.51369822873830
C          -5.25615176729543  -20.57829734953285    2.74948449506442
C          -6.17924960247750  -20.78808513761784    3.84501761592463
C          -7.16640512804508  -19.95131052613042    4.28577376101213
C          -7.91111882264729  -20.48103800826010    5.35753063670773
C          -7.49941743199339  -21.71859530479743    5.74430201215878
S          -6.17160485555228  -22.26406294709601    4.77089698199037
C          -8.03665982250122  -22.57585032699798    6.83185866966893
C          -4.93736717913015  -21.58041752269114    1.84226774328133
C          -4.11640970529618  -21.37467944864464    0.70450346947386
C          -3.53480715116020  -20.11015082213977    0.46733263047119
C          -3.84331137997039  -19.11015393833370    1.38477353744242
S          -3.23558378174296  -17.47495769832970    1.33825481370241
C          -2.65256126988587  -19.88678269798689   -0.65538736797583
C          -1.67264892277493  -20.71187834700077   -1.13739305431137
C          -0.98682045999077  -20.17482500173870   -2.24288778222851
C          -1.44032314941243  -18.94623434739394   -2.61719007598213
S          -2.72838320533144  -18.41634411472576   -1.58739828793225
C          -0.97218274362723  -18.08999480776847   -3.73709430057629
C          -4.04603531076709  -22.52876535800993   -0.10495717630580
C          -4.77870189856862  -23.58767214756023    0.36733703459734
S          -5.54801232577478  -23.20696809865804    1.89840920635641
C          -4.84954001420088  -24.87658897578421   -0.22003859314967
C          -5.74303798094686  -25.87082412981712    0.02651060928006
C          -5.39216359656829  -27.28204354625123   -0.28813373995947
O          -4.49303675036788  -27.66873417571842   -0.99752829365929
C          -6.33538999472323  -28.09540241166388    0.50937341393212
C          -6.36299094781963  -29.44856872361097    0.68623573284693
C          -7.34953932460521  -30.01169673035268    1.52680711171661
C          -8.29025847623278  -29.15744456366108    2.17257943673535
C          -9.26687463029694  -29.72667479654188    3.01438950269065
C          -9.30966981992092  -31.07925807613328    3.20405820596945
C          -8.38004976984683  -31.92306370625196    2.56397218592633
C          -7.42019313236852  -31.40182928936079    1.74256719945320
F          -8.44488029339116  -33.24594519145266    2.76918856238269
F         -10.23957995672537  -31.61781692433920    4.00446660356769
C          -8.24289805231512  -27.76010828155097    1.96420688938632
C          -7.28196070529396  -27.23802940094398    1.14098517495347
C          -7.01807826381782  -25.86802254248804    0.71339181472729
C          -7.92636489528403  -24.84319690253978    0.71338167281250
C          -7.73395833780626  -23.64656213641640   -0.01074081355000
N          -7.63992325883917  -22.69679117716943   -0.64826575222890
C          -9.18048682330328  -24.90995532968534    1.35115176855859
N         -10.20102633814046  -24.91458527991657    1.87665444719714
H          -9.18033487872694    1.60860920313704    8.88205837774996
H         -12.76868174059176   -1.70841531294046    8.05177701029188
H          -7.57963170582614    0.21187900869348    7.68805603990238
H         -11.14708590873847   -3.16395400010591    6.82971502076732
H          -5.10522657587382   -4.03942975888763    5.45659346945288
H          -8.22524577426801   -6.24617390913406    4.58157833367728
H          -9.64867232678419   -9.98970533494466    2.10609146252965
H         -12.12775637725350   -9.57911350249869    2.72482700357258
H         -13.58173413291470   -8.39265369831650    4.52249834435105
H         -12.76064259679340   -6.96575138814126    5.17750767902637
H         -12.80250450262325   -8.45766764040117    6.11135697100227
H          -2.59593802633822   -7.46869399513659    3.24705260569677
H          -0.17813461126620   -8.22520390517331    3.75817462380424
H           1.13504314620003  -10.23302057565686    4.75931513037258
H           0.33958534759886  -11.75494894438479    4.32956530827471
H           0.18988256851522  -11.12028210212714    5.96565143327410
H          -4.16883164044463  -11.94966869796569    3.12644150456628
H          -7.25358498421821  -13.88528260715908    0.81471091986425
H          -8.24406687041733  -14.21664490300012    2.25498797028730
H          -7.18869526140892  -15.47693287303617    1.58681760501850
H          -2.47747973497501  -14.48153472853828    4.40316699586498
H          -1.78408362479348  -15.66430894084673    3.28001790511446
H          -2.42080189821287  -16.19446289670958    4.85624207024809
H          -5.28808895551538  -18.12556434015454    4.25816562349507
H          -7.38662979962636  -19.00494718099063    3.82508434597788
H          -8.72823085404070  -19.95935362548275    5.82317065084463
H          -7.26726298769045  -22.78229694876407    7.57563876612814
H          -8.38018396888031  -23.53021484552125    6.43373920786824
H          -8.87112938493776  -22.07710552879829    7.31865957761259
H          -1.41777598179936  -21.65200055927397   -0.68159640278789
H          -0.18178134031385  -20.68326965426063   -2.74314607110090
H          -0.13991055074793  -18.56749368344343   -4.24838621320861
H          -0.64952413684375  -17.11711264720210   -3.36791098474161
H          -1.77567808923279  -17.92263090497377   -4.45409890171401
H          -3.52438695762722  -22.56561443379541   -1.04395182697723
H          -4.03240376734655  -25.13578667121122   -0.88629672241732
H          -5.64187809698819  -30.08196031002716    0.19239356709995
H          -9.98842222912121  -29.09542335639009    3.50906928241130
H          -6.71575988213507  -32.06114394261200    1.26008166906135
H          -8.96115176078786  -27.13307138357125    2.46831487021994
