145
 SCF done       -278.573049577375          0.000852411530
C          -1.91888586283833    2.39507773711509   -0.43898346145656
C          -0.74579062830655    2.71847212488719    0.18290307922555
F          -0.22553292481194    3.94560010029863    0.04417092484201
C          -0.06873155674194    1.76988039320265    0.97504164114248
F           1.08086232757673    2.11402311956790    1.57278737197283
C          -0.57451243094968    0.51035338375166    1.13424831705465
C          -1.78068436092262    0.14603352979983    0.50498457185671
C          -2.46711898855798    1.10448480049863   -0.29549340776163
C          -3.67922101424410    0.76171690900918   -0.93730762649083
C          -4.18543858366939   -0.50253354518290   -0.78664937637423
C          -3.48874505487100   -1.45447153357314    0.00532243485424
C          -2.32114374142396   -1.15151685126586    0.64377948458387
C          -4.21396476419365   -2.74182708112871   -0.01227133021387
O          -3.89966471932321   -3.72901979312785    0.61921642413395
C          -5.34471952915065   -2.54820619470778   -0.94912662302954
C          -5.38545023193321   -1.14112937451020   -1.31786875842113
C          -6.39429309310023   -0.49056926803987   -1.97829219563992
C          -6.37020146975175    0.88632075519973   -2.28589957477101
N          -6.40821374767477    1.99828875466525   -2.56877409121216
C          -7.61221648385189   -1.06573925099122   -2.40186730805102
N          -8.63817525571933   -1.43990474337045   -2.75762415931481
C          -6.14542082350347   -3.49423651985288   -1.53044382536010
C          -6.24530638058714   -4.88562170128786   -1.32356090773930
C          -5.73295880210458   -5.71578219679223   -0.35361588441330
C          -6.07474567648932   -7.06845603077929   -0.52505082375127
C          -5.69848248918787   -8.16070009580290    0.29351433062028
C          -4.99331732226575   -7.98362123881964    1.54244481039715
C          -4.02127638505273   -8.77727588283770    2.09004343906504
C          -3.58926362409996   -8.33745173864742    3.35455040549145
C          -4.23578925323369   -7.22086815298533    3.79225129485927
S          -5.39247904950779   -6.67698488125733    2.62715449030222
C          -4.04954845246163   -6.48342167010427    5.06851945487225
C          -6.06075710507834   -9.42232468224663   -0.16319471448633
C          -6.82783977581781   -9.63342938930056   -1.33776582893149
C          -7.28163962139272   -8.53917672454967   -2.10735195953334
C          -6.85610335513055   -7.28212580678514   -1.69472935231209
S          -7.21025513250898   -5.78229294384423   -2.49421310989650
C          -8.15149829180058   -8.73649655931315   -3.24573100370727
C          -9.19643879731371   -9.61155334760851   -3.36630306794003
C          -9.84555400363551   -9.53624007909356   -4.61311232724263
C          -9.30097674680544   -8.61416108380259   -5.45355654427815
S          -7.96676651462267   -7.80088825669501   -4.70493668497374
C          -9.71191605390052   -8.26466293747681   -6.83763129836495
C          -7.02437877313771  -11.00731484779003   -1.59611917724626
C          -6.47229809882523  -11.82812401723928   -0.64980989667564
S          -5.66757972082405  -10.93185970919258    0.61496054870524
C          -6.47162394553827  -13.25901777771474   -0.66032476392313
C          -5.88393989355093  -14.02036865056998    0.34231050235714
O          -5.34328885826998  -13.35324897688710    1.42057095741754
C          -6.12073683246503  -13.44541668059664    2.60396296672809
C          -5.79106439554699  -15.44405558985305    0.30484619268819
O          -5.11231070772890  -16.11204377345917    1.27546323114758
C          -3.82546207276417  -15.64690606597603    1.66107538767586
C          -6.40447986446796  -16.19467626473686   -0.70004763233295
C          -7.07058877364532  -15.43902259257002   -1.69789265162435
C          -7.08263779101473  -13.99917036309826   -1.70652007497559
N          -7.75183401338925  -13.62255890649806   -2.77723424689664
O          -8.12934945956827  -14.74019830151736   -3.39580178778178
N          -7.72983559870797  -15.84106328378822   -2.76526493759211
C          -6.33778621005634  -17.62353857817492   -0.81071016982550
C          -5.83988173309401  -18.53096960249178    0.08481514587703
C          -5.86398299914786  -19.86285167223372   -0.38085800874335
C          -5.37551030148899  -21.01224840016551    0.27668005614153
C          -4.73399282522819  -20.96299612297527    1.57471795442113
C          -4.87767731998436  -21.83869904577806    2.61399820000460
C          -4.07423515772050  -21.52442439799449    3.72795240910125
C          -3.30221330364008  -20.41923751101441    3.54675676050353
S          -3.56876149917888  -19.72968667492401    1.97780814956949
C          -2.33993384208722  -19.79361196132288    4.49094110730244
C          -5.53540141069387  -22.21405226515924   -0.39717150137683
C          -6.14108687605960  -22.32649965904294   -1.67633783783366
C          -6.60575259778295  -21.17063853736918   -2.34464542094487
C          -6.45746938132262  -19.96490983612307   -1.66393494938316
S          -6.92033988433315  -18.39646515825531   -2.26774779958720
C          -7.17798671637927  -21.20982353699683   -3.67142538793450
C          -8.19919466673965  -20.44800692776925   -4.17163452294678
C          -8.47522588141346  -20.70173411884333   -5.52786891768360
C          -7.66168995825025  -21.64157051776778   -6.08368473978324
S          -6.53586439261914  -22.25078157691055   -4.91718801346497
C          -7.65344275461981  -22.15426701593368   -7.47780849127121
C          -6.19282911220614  -23.66661503857227   -2.10970674121033
C          -5.65521728647559  -24.56705480622267   -1.22345298738001
S          -4.99490489011685  -23.76085853800047    0.18805823765137
C          -5.55225152634445  -25.96420333683292   -1.43140998070433
C          -5.28597748452514  -26.94561681550213   -0.52727230857372
C          -4.74550867028463  -28.25223377923715   -0.98790862099993
O          -4.73911679178216  -28.68146526849485   -2.11815295045547
C          -4.16500156396074  -28.87366729033503    0.22247985169667
C          -3.43975981156094  -30.02464723268143    0.33153728512071
C          -2.95863398832190  -30.41599333039448    1.60143916948416
C          -3.23640018068384  -29.60088879454799    2.73719991756590
C          -2.74833228455525  -29.99568240602104    3.99906280071049
C          -2.02244521918328  -31.14621520772305    4.12818074901831
C          -1.74981901774036  -31.95214944721990    3.00496013681445
C          -2.20743343853057  -31.59580993769093    1.76745373040899
F          -1.03437074405211  -33.07498723728535    3.16097199999321
F          -1.56076514448126  -31.51981438132805    5.32965984064959
C          -3.99723198742457  -28.41786034833905    2.59539777889686
C          -4.45886863978077  -28.06306287692064    1.35661911970225
C          -5.29381975357426  -26.94852781120406    0.91978286743432
C          -6.14182026906320  -26.22871772574987    1.71985747772347
C          -7.17734999940086  -25.41691586946295    1.20850723625649
N          -8.07649578070476  -24.81078193085684    0.83213484976667
C          -6.13546416579625  -26.29125699673119    3.12652134351840
N          -6.14393623559922  -26.28069048981055    4.27453520671861
H          -2.42515452647676    3.13362657828277   -1.04072247180855
H          -0.04380499658882   -0.20475250293275    1.74312337613773
H          -4.17095795115356    1.50771634517541   -1.54008994095850
H          -1.81481340063277   -1.89384756050869    1.24196174277253
H          -6.79709310748984   -3.14098876350266   -2.32190958149604
H          -5.10864736224342   -5.34836001572616    0.43856616625897
H          -3.59721326296457   -9.62604525468542    1.58532991955477
H          -2.82216194408641   -8.83342534018920    3.92258798136737
H          -3.27135102898780   -6.95661387460776    5.66266415381423
H          -4.97438262195617   -6.47103099469503    5.64535570032219
H          -3.76598863612113   -5.44940930816043    4.87427977290525
H          -9.51923412778607  -10.25785764410143   -2.57027204795782
H         -10.69064491323481  -10.14701700130930   -4.87649964402186
H         -10.56474945151392   -8.86938135018527   -7.13623512504454
H          -8.89471359942781   -8.43847786266517   -7.53732309890415
H          -9.98586046224852   -7.21191716614059   -6.90208775892433
H          -7.52457803086425  -11.39417250762610   -2.46377493221049
H          -6.25311725692684  -14.48380630532389    2.91990089372791
H          -7.10418361080421  -12.98786740862346    2.45895558028666
H          -5.57345829125360  -12.88977062778963    3.36228781593412
H          -3.23717889724834  -16.54491266813215    1.85706760713740
H          -3.87301760165349  -15.03985430008616    2.56721865376789
H          -3.35417926166290  -15.06869454499800    0.86586450509808
H          -5.48181792122531  -18.24983291431269    1.05489899852741
H          -5.57159828851541  -22.66000087355633    2.60170242339044
H          -4.07261106781368  -22.10351456147989    4.63407059083035
H          -2.27890419590590  -20.38429560730751    5.40158912722082
H          -2.65512208893316  -18.78255827531442    4.74938683136150
H          -1.34756006755253  -19.72951804716744    4.04533621259675
H          -8.76323781923642  -19.75302712228191   -3.57731828264321
H          -9.25222986554198  -20.19906629766238   -6.07551475533919
H          -8.43120246691844  -21.66359889047457   -8.05786858205986
H          -7.82730977569784  -23.23004610910760   -7.49424226350894
H          -6.68985784349153  -21.96685399980126   -7.95140868900804
H          -6.65193048067273  -23.98365237533321   -3.02809119454160
H          -5.60800450422192  -26.28666881779267   -2.46669966013992
H          -3.23569202000312  -30.62974170105032   -0.53868382275862
H          -2.95104409208664  -29.39219852429421    4.87001392277820
H          -1.99028372826723  -32.22340770391634    0.91733733701037
H          -4.19011116267715  -27.81451433697620    3.46837065917841
