139
 SCF done       -272.469155555148          0.000642109884
C           3.50466449923784   -0.59974185680300   -3.55139609321913
C           3.95510912799865    0.51749396417444   -2.90599634046499
F           5.07824054335049    1.12478556623986   -3.31387091489693
C           3.24835192038686    1.04441804685412   -1.80703115631253
F           3.71337442276098    2.14158687585319   -1.19191899432656
C           2.10041285983339    0.44658626920896   -1.36809248137254
C           1.61090413295931   -0.70639095077936   -2.01169701666613
C           2.32396001686168   -1.23954756413046   -3.12398153873184
C           1.85046682683603   -2.39474789771857   -3.78784445370168
C           0.70122039729564   -2.99749021823503   -3.35019672943573
C           0.00109384671751   -2.46392320896400   -2.23457223498066
C           0.43036077455365   -1.34865602800142   -1.57580288431521
C          -1.18327078255576   -3.30036290518603   -1.94711098197262
O          -1.98826264665365   -3.09577422196344   -1.06030704144502
C          -1.12862202003370   -4.41377814904156   -2.91651940060389
C          -0.02309001709054   -4.17354441390232   -3.82347553973338
C           0.25915748738229   -4.85853383065305   -4.97848443978654
C           1.34467941367720   -4.55630861924345   -5.82621935823741
N           2.21555997183096   -4.36653596874678   -6.55003552706845
C          -0.50689126463194   -5.91434345956734   -5.51605807525668
N          -1.09032367412378   -6.75571111418061   -6.03681749977832
C          -1.85859592982245   -5.57897193751862   -2.90931315647876
C          -2.99459440129590   -5.94631502887595   -2.17487583913795
C          -3.89102117825157   -5.21382322364954   -1.39633968024139
C          -4.92411094568368   -5.96771034764450   -0.87114923888371
C          -4.82545081420494   -7.32404892339335   -1.25264922088238
S          -3.48161326252264   -7.63794340010591   -2.26066179908113
C          -5.83569474884829   -8.17431087339241   -0.76183823984881
C          -6.81781549254697   -7.55070639660774    0.03233195523457
Si         -6.42198875482478   -5.72949697403287    0.22922092397511
C          -5.94811146135135   -5.25227095547595    1.96714203150171
C          -4.75601331322583   -4.57677087626874    2.24409499353848
C          -4.43419744033769   -4.19336924177997    3.53299593091455
C          -5.29597387616507   -4.47717655088785    4.57889194075836
C          -6.48262151945145   -5.14672947433670    4.32816499094902
C          -6.80291735842294   -5.52720017387902    3.03913066899790
C          -7.75007336164913   -4.63069424743321   -0.48070893604734
C          -8.02725355076211   -3.38162897707861    0.08140399896409
C          -9.01244502765992   -2.56383649716593   -0.43906185599762
C          -9.74795605318038   -2.97652797288516   -1.53754253577877
C          -9.49214770755882   -4.21122808286686   -2.11123726969162
C          -8.50606535778211   -5.02613533147659   -1.58913955970271
C          -7.78234170191676   -8.46050252010149    0.43387895652086
C          -7.55346078711660   -9.75996210949345   -0.01306370217970
S          -6.09359611064209   -9.86293712489567   -0.96088879519047
C          -8.35725134125291  -10.90519704326442    0.22875017407350
C          -7.94055907721420  -12.20088598377368   -0.15183170129712
C          -8.72396913874657  -13.37223680927664    0.10775423634142
N          -8.24611188478963  -14.57793166594037   -0.25751494090615
C          -7.09539554936380  -14.66440352433838   -0.84173608539952
C          -6.32380638652775  -13.50377095801996   -1.10770104224139
N          -6.74816347835501  -12.33067597869511   -0.76640444745276
F          -5.14192545911809  -13.58843677231781   -1.70959953416881
F          -6.65721011324522  -15.87271547286499   -1.18048172817258
C          -9.99209895128253  -13.31868819879241    0.72955677480974
C         -10.42718069151766  -12.02184746589323    1.09759398320233
C          -9.62079994279565  -10.84267472704365    0.86598461441740
N         -10.22622684376474   -9.74164900954127    1.31178899957744
S         -11.64472773475094  -10.13413194921114    1.95113741707168
N         -11.57538299544861  -11.71751994754386    1.70284740803838
C         -10.75431376846677  -14.49014059172779    0.97612684023871
C         -12.05852156537958  -14.56058437141383    1.46067359940232
C         -12.52123876623910  -15.85416734860312    1.63903117612438
C         -11.53546366577072  -16.79630392498977    1.28686385518675
S         -10.08472326888315  -16.07864481351694    0.70791546550864
C         -11.89435008598018  -18.14406197237118    1.48148574440658
C         -13.17117346348757  -18.37222115732332    2.02630285372258
Si        -14.07103938585023  -16.73749511248058    2.20969683549709
C         -14.55895296789525  -16.28579861664118    3.94966131442305
C         -13.78991542407304  -15.41893338433740    4.73133009709260
C         -14.17562773415303  -15.07752005022137    6.01413302024273
C         -15.34211509084428  -15.59645493222752    6.55015473341605
C         -16.12098709061810  -16.45748622958537    5.79444601347053
C         -15.73334645164893  -16.79520051349862    4.51204704667970
C         -15.48668526917409  -16.65252507292654    1.00032008888742
C         -16.55665619386243  -15.77529456565533    1.20251635962155
C         -17.60847352232406  -15.70914094604418    0.30875584448628
C         -17.61666344724395  -16.52055386530948   -0.81398354704804
C         -16.56745252500404  -17.39704285297627   -1.03556166130015
C         -15.51589712826841  -17.46236770106814   -0.14101175001167
C         -13.40281055333866  -19.72471094541095    2.21651824056491
C         -12.36305588358537  -20.54386953252198    1.78815924091633
S         -11.02194784443214  -19.58888993514486    1.18272179210517
C         -12.31832979467064  -21.94836130838080    1.88526629865667
C         -11.51557502766608  -22.82585643156814    1.21455429277930
C         -11.24295459909383  -24.16833779540780    1.78638729449060
O         -11.82645766065778  -24.70304581772575    2.70193704843425
C         -10.06931171289530  -24.67169754756943    1.04018082309691
C          -9.33357406632559  -25.80023782698843    1.25693096842641
C          -8.21692408769617  -26.06122271968200    0.43063251762002
C          -7.88244662257439  -25.14193986848699   -0.60577905921833
C          -6.76108413909008  -25.40401078522952   -1.41800670865708
C          -6.00928710355666  -26.52684647795227   -1.21346668776980
C          -6.34231813390322  -27.43618466379633   -0.19006893187681
C          -7.42303554309103  -27.20976398747276    0.61529282518063
F          -5.58661985887724  -28.52899426975603   -0.01100248602558
F          -4.94353130125018  -26.77428605948434   -1.98718742062537
C          -8.67009665194959  -23.98600077567114   -0.81381762145758
C          -9.75024048401750  -23.75826772067824   -0.00517690028014
C         -10.74250558800790  -22.68631408422413    0.00274939713392
C         -11.06017655461487  -21.89397460406418   -1.07153418453704
C         -12.20761723542332  -21.07679162947998   -1.11741831725270
N         -13.15720137473638  -20.43657751586387   -1.20579588876162
C         -10.33623195560395  -21.89128023423469   -2.27993220514269
N          -9.77338251852868  -21.85073490949107   -3.27954471070254
H           4.05674425895623   -0.98975074392275   -4.39222226929665
H           1.57120783586498    0.86224733087318   -0.52492242748464
H           2.41550765457423   -2.77620084248379   -4.62263942216870
H          -0.12226302358268   -0.96262005581108   -0.73270214506277
H          -1.49353784558917   -6.36745665588658   -3.55770704698105
H          -3.77252317240593   -4.15857945337640   -1.23588299365669
H          -4.07606959507575   -4.34973953518415    1.43615366731177
H          -3.50767919468162   -3.67122286242169    3.72203390990501
H          -5.04429030139002   -4.17904034663944    5.58613996316922
H          -7.15851115025294   -5.37111708720728    5.14078303497698
H          -7.73109351987038   -6.04743733022220    2.84993260094588
H          -7.45923975298969   -3.05584214627618    0.94120654426925
H          -9.20872789395338   -1.60230384566219    0.01263630384272
H         -10.51885721298865   -2.33890707040342   -1.94467320874955
H         -10.06455052225621   -4.53807814334190   -2.96721786029481
H          -8.31418685543177   -5.98985321682834   -2.03969977306690
H          -8.63965954968862   -8.21607721415529    1.03289575772147
H         -12.62949774493899  -13.67521029477934    1.67069924132932
H         -12.88012804278829  -15.00651319040722    4.31911135720845
H         -13.56580559175561  -14.40364496270678    6.59839112950955
H         -15.64447870227115  -15.33009577237812    7.55223246632675
H         -17.03300452488680  -16.86384498915526    6.20694376825637
H         -16.34921156261057  -17.46195588424028    3.92547335774810
H         -16.55905623912405  -15.14291426874465    2.07933781221878
H         -18.42530430559919  -15.02484482930863    0.48786478819037
H         -18.43955007486073  -16.47079197156200   -1.51197914708889
H         -16.56837344609659  -18.03492208609622   -1.90688805979513
H         -14.70799078211006  -18.15591744449636   -0.32397988800679
H         -14.31353885428178  -20.12992449091907    2.62052361840047
H         -12.94989241050050  -22.38835625843081    2.65150361738935
H          -9.59709677291279  -26.48451604198103    2.04900256758481
H          -6.49421357105043  -24.71971683779578   -2.20813443681636
H          -7.66444406366219  -27.91529017590964    1.39484781308602
H          -8.39258644861760  -23.30130338198534   -1.59953017463211
