139
 SCF done       -268.384923281050          0.000979225578
C          -8.98549438251928    2.00861233510981   -2.58852564435797
C          -9.06047713155946    2.46531010098979   -3.87429909339081
F          -9.38447071850896    3.74172936976644   -4.11797710433951
C          -8.79882285953551    1.60324836307523   -4.95843511908544
F          -8.87844965411787    2.07857892283847   -6.20854564548716
C          -8.46769886285939    0.29528729658967   -4.74136303634365
C          -8.38361603050228   -0.20562184423373   -3.42771702619678
C          -8.64449988352118    0.66540435319274   -2.33041351563395
C          -8.55858376237087    0.18757679326418   -1.00297323984175
C          -8.22415493567360   -1.12267076842430   -0.77866346800842
C          -7.97973759810624   -1.98614097024436   -1.87993967629999
C          -8.04922856760846   -1.55349514522388   -3.17280323488795
C          -7.66367936898060   -3.34126176711520   -1.38881135562363
O          -7.37424001858899   -4.28758538053766   -2.09087333528789
C          -7.77642874924096   -3.27109150786838    0.08779274078337
C          -8.04573467588901   -1.88600953307283    0.45305291761545
C          -8.07565946063589   -1.34731243532539    1.71262777512339
C          -7.82306625566327   -2.02353277424451    2.92623732172866
N          -7.61514157240424   -2.47513711392517    3.96163761469905
C          -8.33602733435985    0.01457092441211    1.97990818963032
N          -8.54309851634368    1.10550059152825    2.27040015848461
C          -7.71619580569304   -4.28549809517318    1.00322190583099
C          -7.47973225054495   -5.67057241071246    0.86466098683696
C          -7.20463303390471   -6.46786276532331   -0.21983720943456
C          -7.02519421664919   -7.82599322851654    0.10196923350591
C          -6.77060672816686   -8.88779008391777   -0.79790823069841
C          -6.76824660039385   -8.71012556888825   -2.23097845806446
C          -5.95379380640018   -9.31058052533729   -3.15521227655604
C          -6.25745609758634   -8.95160906995350   -4.47975630656486
C          -7.31360180388510   -8.09549860517132   -4.58218674286341
S          -7.94597551434781   -7.69741141142771   -3.02358999398663
C          -7.92087321068667   -7.51981359773795   -5.80914300689966
C          -6.55515761202296  -10.13426294737737   -0.22156757334359
C          -6.62612635823731  -10.37184298827726    1.17466874059517
C          -6.95562454264683   -9.33068313793291    2.07039013041197
C          -7.12101057473403   -8.06963633124135    1.50020884703143
S          -7.50537863531436   -6.60978211628738    2.35636427804019
C          -7.18401134860686   -9.55816166284602    3.48084090165684
C          -6.98375171266690   -8.69978867478864    4.52852282108480
C          -7.43668413979298   -9.20181194897767    5.76301734502285
C          -7.99306465364479  -10.44135967695120    5.67844824735431
S          -7.94555651567502  -11.02557501652443    4.05032236197709
C          -8.58708055473431  -11.27377367724500    6.75491480081255
C          -6.35173563807550  -11.72308085539018    1.48339614174066
C          -6.14017873602638  -12.50389421607559    0.38324661207740
S          -6.23365498622178  -11.60453113889325   -1.10542875840737
C          -5.86048957689473  -13.91436336845131    0.40207407356886
C          -5.79844917634496  -14.71308956673537   -0.69371843002055
C          -5.53544714080348  -16.11292260494244   -0.55423250983714
C          -5.47021677934170  -16.96260938280487   -1.64345336278610
C          -5.20583700839233  -18.33358459647799   -1.49532224343797
N          -4.98505530535414  -19.45354336076577   -1.36533576986823
C          -5.65906553983474  -16.49828475823273   -2.95496000947573
N          -5.81215083303097  -16.11091542527344   -4.02571847997448
C          -5.33392919577797  -16.57482038097159    0.78523136935185
C          -5.39726647153327  -15.70742328201430    1.82765907216237
O          -5.66861847214017  -14.38804358893556    1.66006899283076
C          -5.14652340768574  -16.04985469787646    3.20197522978197
C          -5.11206428133570  -15.17632968722253    4.25167036435187
C          -4.74646327102975  -15.78014187952870    5.47632637743498
C          -4.60064427272453  -15.16188243708696    6.73758244694072
C          -4.73478839842378  -13.73142292591478    6.91383335234439
C          -4.33655190547174  -12.72188323005172    6.07965300924142
C          -4.58590245320000  -11.43535001438378    6.59576176664840
C          -5.17373419399450  -11.44836268427531    7.82351349291861
S          -5.44471084481866  -13.07203909404917    8.36668420859628
C          -5.53545575073369  -10.30198948897530    8.69464937801334
C          -4.30234175342729  -16.01156065344583    7.79626696203591
C          -4.15433761096549  -17.41695521117836    7.66656495927331
C          -4.27763229670799  -18.03014347123131    6.39985545979359
C          -4.54893527326679  -17.17638299817719    5.33331182003567
S          -4.76322023989337  -17.68143038741804    3.67742831187386
C          -4.14814923488589  -19.45532373403037    6.19784708180341
C          -3.58175595519576  -20.10599536787155    5.13402671822462
C          -3.67443373785356  -21.50670220536982    5.22139132861726
C          -4.32402332798168  -21.94045917219335    6.33736928287132
S          -4.82252481545392  -20.60645245284145    7.32223858926904
C          -4.61508198773885  -23.33551148897684    6.75482252731946
C          -3.81924068097611  -18.02142903059303    8.89703293955755
C          -3.74330283448029  -17.14480534666340    9.94904886783395
S          -4.01548230678132  -15.49413490994150    9.43001917683073
C          -3.39324205684422  -17.48074678270758   11.28213878308348
C          -3.51968365201374  -16.73311257052468   12.40943556365033
C          -2.67825941516668  -17.04137556607515   13.59876714369055
O          -2.07464552987281  -18.06482393801826   13.81804546301052
C          -2.68845775465840  -15.80036410966874   14.40240468359568
C          -1.97317839948294  -15.50203858676588   15.52615654801045
C          -2.11936156196509  -14.22616177698126   16.11551981756547
C          -3.00586253640699  -13.27913049320333   15.52448314964948
C          -3.13922542038329  -12.00556940537211   16.11349879732241
C          -2.42869149649816  -11.68778236871631   17.23660698811451
C          -1.55397535363187  -12.62562291232100   17.82134627057569
C          -1.40205615613018  -13.86864686988520   17.27387955289715
F          -0.86889087829184  -12.28608742858709   18.92146946915622
F          -2.55636848501083  -10.47623185371278   17.79341788344718
C          -3.74190213423595  -13.61939004864284   14.36670792646078
C          -3.58793841848868  -14.86338660811168   13.81630197981342
C          -4.23539708199121  -15.50080464690217   12.67451882846048
C          -5.44348532947270  -15.14293413205212   12.13898293867964
C          -6.18731659012449  -15.99449910606489   11.29219788348731
N          -6.84842159471474  -16.69379181760732   10.66756294200809
C          -6.10594549899699  -13.93558963562379   12.43404570130537
N          -6.65976563913996  -12.94662230670043   12.61594957640991
H          -9.18696857435270    2.68228849367042   -1.77034752721246
H          -8.27068849191402   -0.35179153409100   -5.58170497579038
H          -8.76387489505805    0.87351455166174   -0.19767382425388
H          -7.85210131283536   -2.23220525605156   -3.98865450759073
H          -7.89299193789557   -4.00014745997276    2.03375936684783
H          -7.12164649089911   -6.06885503574192   -1.21316587983453
H          -5.13286573926057   -9.95289004727489   -2.89255756329778
H          -5.71218478810313   -9.31809576315434   -5.33099227969588
H          -7.34279843424240   -7.81022890399917   -6.68294325361193
H          -7.95020782583472   -6.43267163675401   -5.74714799354229
H          -8.94459849819224   -7.87352422766203   -5.93326281437069
H          -6.49772032111970   -7.74633263816558    4.43043972986935
H          -7.36947004081153   -8.64933618645635    6.68270488281675
H          -8.71518038243897  -10.68055011636080    7.65674804470336
H          -7.94606009720240  -12.12545530645009    6.98504847109016
H          -9.55696215920099  -11.66306359895110    6.44882608427026
H          -6.30678547411060  -12.11774440440642    2.48045982019118
H          -5.95454178894296  -14.29290564322808   -1.67471998440667
H          -5.11805741769042  -17.61621264442318    0.96468482797352
H          -5.35985635536462  -14.13744427361153    4.14583067264528
H          -3.82332882414588  -12.89081131503602    5.15002035808008
H          -4.32980778906730  -10.52964004945254    6.07513812897558
H          -5.43850645154240   -9.37035405820307    8.14343024498508
H          -4.87472827433250  -10.26457163064390    9.56137985243014
H          -6.55426225474043  -10.40059383034888    9.06448148255677
H          -3.07389672613896  -19.60067673207295    4.33280843755517
H          -3.27544485148891  -22.17173617420848    4.47671953492461
H          -4.24558208575611  -24.03147975220290    6.00583420418945
H          -5.68757130415663  -23.48498605686639    6.87629232765980
H          -4.13911188024976  -23.55982751754281    7.70929271543135
H          -3.65264899609048  -19.07555276230931    9.02164011046219
H          -2.87777439668662  -18.42836091218437   11.40463543454456
H          -1.30272860597334  -16.22854327098023   15.95927901518909
H          -3.80732451899343  -11.27728542613977   15.68093445694636
H          -0.72839212699801  -14.57487911401256   17.73330836346453
H          -4.40323715422981  -12.88526397710849   13.93429877097776
