141
 SCF done       -277.332897770279          0.000730126506
C          -7.70833770280277   -0.25218979514047   11.19032734480445
C          -8.02629353160346   -0.43753693684100   12.50644533068624
F          -8.28430078923187    0.61665101850345   13.29205997478037
C          -8.08707516823760   -1.73464271528248   13.05413215367614
F          -8.40043487496925   -1.88668907299571   14.34836800422383
C          -7.83048588986960   -2.82916767875988   12.27705649394028
C          -7.50064958666821   -2.67093929725795   10.91705048441253
C          -7.43554246817061   -1.35985204528230   10.36244754144586
C          -7.10014224962489   -1.17595313449941    9.00137901036613
C          -6.83753832201925   -2.27011358676912    8.21955044350604
C          -6.91468444740227   -3.57418272311474    8.77945809675669
C          -7.23503495623335   -3.78419468837805   10.08950052159634
C          -6.60611923505681   -4.57945370772553    7.74296371856275
O          -6.58669765157381   -5.78085733498178    7.91240185045927
C          -6.39744989399644   -3.81158048226321    6.49314377092509
C          -6.46691269944546   -2.39605309952100    6.81353682026068
C          -6.16342767456710   -1.35159127911488    5.97995860320656
C          -5.70813670775284   -1.46789271313253    4.64895258659424
N          -5.31616446277265   -1.47136794397005    3.56959941443703
C          -6.22669568074370    0.00457741229468    6.36433734391404
N          -6.26790218165799    1.12383018995921    6.61621283521069
C          -6.34859366260881   -4.30638976569232    5.21778503600303
C          -6.22467758103993   -5.64241609425201    4.78077439871232
C          -5.76211521573085   -6.76692754134308    5.42266941913128
C          -5.80979495003165   -7.93233273769353    4.63702213316670
C          -5.41669661373156   -9.23923765159421    5.01326194425764
C          -4.98248837373196   -9.54403387625881    6.35513959067771
C          -5.45372146916312   -9.04706874906517    7.54292176187095
C          -4.81427562396289   -9.60158428360333    8.66579120436757
C          -3.85123255093300  -10.51393286462161    8.35172144851190
S          -3.72298837552619  -10.71967284126953    6.63850336470016
C          -2.97456646302726  -11.28914645815784    9.26571020809775
C          -5.51441703624770  -10.21372813221191    4.02538385250957
C          -5.99707162434480   -9.95523099211906    2.71844168750602
C          -6.36901681829148   -8.64770830379558    2.33614149095587
C          -6.28461452164817   -7.67301584275742    3.32193363256164
S          -6.68004539262937   -5.99365269241924    3.11640415752458
C          -6.79159840993925   -8.35645812928789    0.98267675066296
C          -6.25167581151767   -8.82183997755731   -0.18433471451230
C          -6.89680692143526   -8.32533090952757   -1.33370576722147
C          -7.93292335803360   -7.48813247775292   -1.05444878215068
S          -8.12565024859321   -7.28444594843444    0.65614617799020
C          -8.83759702941511   -6.78630888316409   -2.00102366617816
C          -6.10642331014612  -11.14038609297337    1.95885557697405
C          -5.70785657629839  -12.26438604403298    2.63212375750218
S          -5.16053731829508  -11.90620387689768    4.25265955026997
C          -5.75134826109882  -13.59724721367270    2.13103723542181
C          -5.32971743197807  -14.77371987224280    2.73136243780673
C          -4.71023865414912  -14.80681120750671    3.99159284355110
N          -4.19692790629540  -14.82729160358101    5.01692040556902
C          -5.58731785286420  -15.92059315433014    1.92596053724804
C          -6.19741506664788  -15.56534362965761    0.72910603414545
S          -6.45878515312460  -13.87495955083200    0.55254354498050
S          -6.59065778584434  -16.88292048999823   -0.32548820461370
C          -5.92652763809717  -17.95245475410409    0.86567978326691
C          -5.42124283284823  -17.33601411299090    2.00441499782819
C          -4.90233028554079  -18.29707722869990    2.91912441362297
C          -4.34861685247656  -17.99823315291522    4.17518188234870
N          -3.90708617087443  -17.77257808577695    5.20916153594172
C          -5.04311416213013  -19.59647262370842    2.45839920675153
S          -5.80509238974924  -19.66795533130091    0.88522106617672
C          -4.67495090892570  -20.81885561828680    3.09438300015340
C          -5.14398064462634  -22.06302131686085    2.77404141699603
C          -4.62795284273952  -23.09269719851282    3.59233276964500
C          -4.92336895793869  -24.47253242930091    3.54031741600502
C          -5.77003268150584  -25.05668318001371    2.52246828958707
C          -6.64977059719828  -26.09660943071261    2.64655490111987
C          -7.25825103104376  -26.46466651168404    1.43105774419514
C          -6.84188328572430  -25.72437238572927    0.36789565957723
S          -5.68498495044450  -24.53249861043424    0.86008057833982
C          -7.25202056839615  -25.83316178097085   -1.05566200286607
C          -4.31971401800431  -25.25969255860241    4.51359820660946
C          -3.39568754905073  -24.76111835829238    5.46909459990877
C          -3.06758111308075  -23.38695627564032    5.49269336849391
C          -3.73327732346630  -22.58656353684616    4.56742864717375
S          -3.54550248756230  -20.86038145761435    4.42535013974755
C          -2.08521314999061  -22.82777427100607    6.39240811394737
C          -2.09360304013761  -21.60076421558820    7.00151092571837
C          -0.93729289772708  -21.34617627738275    7.76068392580380
C          -0.02874225453806  -22.36064017084328    7.72775268105162
S          -0.60414438017438  -23.67638959564271    6.76049784532752
C           1.29720222667705  -22.43798938244207    8.39256863186218
C          -2.93780954563576  -25.77783641229354    6.33151897828255
C          -3.43018201149391  -27.02603028200879    6.04214708962531
S          -4.55364030763439  -26.97302803105078    4.69580636859714
C          -3.19347457002556  -28.19301909143097    6.80885358839977
C          -3.50398004934370  -29.48591846346394    6.52404865466490
C          -3.65050886729423  -30.46845950475766    7.63179396054270
O          -3.25408697588501  -30.35153755382168    8.76763324196637
C          -4.44692830707662  -31.57368991042711    7.05608302973976
C          -4.97670696585058  -32.66444864028445    7.68252465397280
C          -5.74267627545676  -33.58368508037212    6.93074105034495
C          -5.94750992398829  -33.35175551614688    5.53935307167384
C          -6.72001090364515  -34.26916042062670    4.79899912242852
C          -7.26034295063829  -35.36584362416311    5.40948543467443
C          -7.05508929359261  -35.59536181508705    6.78465499506398
C          -6.31233367040915  -34.72377281924817    7.53049593711591
F          -7.59771014236528  -36.67896329363892    7.35717727243005
F          -7.99448051959447  -36.23635222156781    4.70313707241706
C          -5.37820055832575  -32.21819442500829    4.91504981452742
C          -4.63529214737044  -31.34474858885425    5.66249724898875
C          -3.90797180296443  -30.13379571251682    5.29422277284874
C          -3.45596955346955  -29.82403882009604    4.03924945400111
C          -2.47715371677901  -28.83453897652756    3.80129044752505
N          -1.63033068761555  -28.09014535026665    3.58768651384933
C          -3.83858173114338  -30.52202351418383    2.87723585004644
N          -4.14202290937038  -31.05071366475869    1.90456078853583
H          -7.66463691486884    0.74767396785362   10.78750169021175
H          -7.88208065898912   -3.81558605234934   12.71079302924063
H          -7.06518630516299   -0.17169389300888    8.61155590185760
H          -7.28475459292104   -4.78619317131003   10.48797598317797
H          -6.47067221720742   -3.59289402850663    4.41088953138716
H          -5.36146754776197   -6.74262955144953    6.41639319216013
H          -6.25938144465779   -8.33967658877613    7.61736872732125
H          -5.06325698843730   -9.33305954082273    9.67701177909102
H          -1.92640753452435  -11.04882119379207    9.08833711785216
H          -3.10128310542809  -12.35830666546361    9.09912856504867
H          -3.21759934503054  -11.05993946063382   10.30044047820109
H          -5.38845600904348   -9.46249258700195   -0.21859828262798
H          -6.59802919271400   -8.57905001689441   -2.33539067594382
H          -8.57408529080872   -7.04003614099487   -3.02491694111564
H          -8.76102203761062   -5.70663102849052   -1.87497310255403
H          -9.87509720987944   -7.06841923727310   -1.82354718559655
H          -6.49873146387684  -11.17072665019467    0.95795595006534
H          -5.86447977852647  -22.22197561654385    1.99223607133490
H          -6.89026180799434  -26.55926851540096    3.58664157551092
H          -7.98043574471867  -27.25726601597487    1.34914872891961
H          -8.01411739156457  -26.60094038599181   -1.16400692595260
H          -6.39915401762104  -26.09518260562733   -1.68167263297886
H          -7.65060570096926  -24.88538719069690   -1.41655989881466
H          -2.91693296743873  -20.91221506656548    6.94471237668145
H          -0.78308447254225  -20.43420592969130    8.30875657558301
H           1.49636346808386  -21.51472443282715    8.93094865645648
H           2.08680013155223  -22.59557351398955    7.65831607427665
H           1.32837409962176  -23.26984527662795    9.09610125634060
H          -2.25636807937874  -25.61124111726571    7.14559120891038
H          -2.80100841581791  -28.01875923026313    7.80614971524683
H          -4.81551750286094  -32.82386663590953    8.73782815470838
H          -6.88384537210375  -34.11060254920843    3.74455688101904
H          -6.16468458493329  -34.91303077534014    8.58221829627854
H          -5.55143728478465  -32.06050421846108    3.86222057491566
