88
 SCF done       -210.083090082100          0.000405535204
C         -11.79510597942224    0.81037312805015   -1.89928188754096
C         -12.72020235645406    0.90674063254760   -2.90088209607447
F         -13.33212347690527    2.07247790782146   -3.14184984470585
C         -13.04225737576684   -0.21540980415564   -3.69125908473464
F         -13.95251846939373   -0.09142323715284   -4.66526172962142
C         -12.43421855444764   -1.41907201108161   -3.46849895135923
C         -11.47733173919119   -1.55011969541461   -2.44334565301341
C         -11.15026102631715   -0.41652941107047   -1.64361857694269
C         -10.19299711501122   -0.52364732473772   -0.60846483316846
C          -9.58184408072095   -1.72815156496878   -0.37752804829415
C          -9.91861133771974   -2.85418274823276   -1.18016110111979
C         -10.83625630364737   -2.78222159484029   -2.18866175528409
C          -9.14102784096953   -4.01743566885723   -0.72799509814194
O          -9.17510069961305   -5.13873140199957   -1.20320798917541
C          -8.32823935171226   -3.55525311415269    0.40477431051976
C          -8.57513873984058   -2.13629927401536    0.60092215484562
C          -7.97770476620504   -1.30582474958249    1.51035251196005
C          -6.97928068368751   -1.67412065951473    2.43866254805315
N          -6.16236884739341   -1.88394733707745    3.21712353038782
C          -8.27424531522236    0.06910709163856    1.63564743150956
N          -8.47062999926075    1.18912713386749    1.79078402010742
C          -7.51254544745835   -4.35193659576409    1.16130892628304
C          -7.24562685749330   -5.72836506592153    1.04274805717318
C          -6.40857695983950   -6.38745277223252    1.95208758837105
F          -5.82747761131517   -5.74713896134393    2.96619113082930
C          -6.25726014299065   -7.74298449898181    1.70245529600666
C          -6.98596454466630   -8.14174853362396    0.56870948091160
S          -7.85539500711418   -6.84779262596475   -0.16722219307482
C          -6.84223288319285   -9.51248574379310    0.32794346328569
C          -6.01650202866061  -10.13513257827951    1.27470505953876
S          -5.39113114926504   -9.04393343824671    2.47609258042960
C          -5.89043217710117  -11.50779444371548    1.04146618789536
F          -5.16442480160193  -12.33162819580008    1.80118663604142
C          -6.60085188483151  -11.93691188926459   -0.06565457227865
S          -7.44454611630515  -10.62445449329722   -0.84657170503124
C          -6.72734437455728  -13.24667325404856   -0.59120472716838
N          -7.40803421631201  -13.49950998270332   -1.67196866906298
C          -7.39951328017257  -14.80290435262524   -1.93959292476665
C          -6.69037258093975  -15.62114472409338   -1.03926087831705
S          -5.99406227918854  -14.66037551475334    0.20191920716626
N          -6.70013045071675  -16.92754318603918   -1.29709171640083
C          -7.38903883534701  -17.17865203708398   -2.37265000637482
S          -8.09905585175124  -15.75990535443776   -3.17954838231218
C          -7.60037642517942  -18.48951700993654   -2.86816787500383
C          -8.28997873417901  -18.87460869056959   -4.00323794706287
F          -8.85073107519133  -18.00223439407416   -4.84391376237124
C          -8.33881464514607  -20.26170876171484   -4.17300951899721
C          -7.67296680209897  -20.94268950510514   -3.14487621153803
S          -6.98449136067977  -19.86397775032152   -1.98585322291429
C          -7.75344630947346  -22.33029289653562   -3.30784581063213
C          -8.47996771934630  -22.67988752475752   -4.45423222746246
S          -9.06080280958399  -21.31168647039134   -5.35437685904406
C          -8.61877252019412  -24.06178003133861   -4.58993544740536
F          -9.22742625184947  -24.64014717646695   -5.62941321690267
C          -8.01046183085382  -24.78719259318671   -3.57636496876074
S          -7.21085240296681  -23.71387376782914   -2.44313462805930
C          -7.92432419970879  -26.18817634137588   -3.38670582327196
C          -8.71842325337689  -27.18800653100529   -3.85459633992265
C          -8.17839380249094  -28.58209854751563   -3.83613542452531
O          -7.18738816001716  -28.95931707636049   -3.25806165947946
C          -9.08077106054704  -29.35967550219938   -4.70531608048887
C          -8.97067790493126  -30.65824324269466   -5.11298248677097
C          -9.95175785891198  -31.19120736580003   -5.97849501141590
C         -11.02555306131239  -30.36102110146486   -6.41427298798951
C         -11.99592837196849  -30.89645519654349   -7.28499089154575
C         -11.90767840027664  -32.19588114153430   -7.69905176413892
C         -10.84708600911995  -33.01698945070881   -7.26488810663152
C          -9.88859136118336  -32.52631750126477   -6.42318931605629
F         -10.78635217105443  -34.28651523984425   -7.68669735475866
F         -12.83148999573869  -32.70371434620704   -8.52410486414003
C         -11.11656435733533  -29.02201747039168   -5.97032119539942
C         -10.16282856155722  -28.53157146361794   -5.11914661728039
C         -10.02579117540179  -27.22705339552065   -4.47546858297145
C         -11.04759173036668  -26.33248750310915   -4.29750994602780
C         -10.95672566450194  -25.19645161779694   -3.47170040538722
N         -10.90878747571616  -24.26813284320104   -2.79805121096283
C         -12.33312593116093  -26.48268387392917   -4.85956048609029
N         -13.39205753419491  -26.55115674530617   -5.29562479392791
H         -11.56054945624837    1.67935159604836   -1.30452129778064
H         -12.69129420690192   -2.26867415553635   -4.08150128085381
H          -9.97115710871676    0.35341328575900   -0.02278077646664
H         -11.06958081090878   -3.65388686266076   -2.78088587809153
H          -6.99056268642751   -3.88965426716963    1.99188608777901
H          -7.06092646787589  -26.52480193625773   -2.81957201411813
H          -8.14643605282090  -31.27018271469055   -4.77965446830855
H         -12.81609133929475  -30.28296357364915   -7.62377546548835
H          -9.08315443691599  -33.16723293937122   -6.10043574844916
H         -11.93378696619688  -28.41339641921446   -6.32280381103767
