99
 SCF done       -217.089074089812          0.000879633360
C          -1.39719779981716   -8.63147699895239   13.57474111847712
C          -0.82670741412273   -9.70889867258757   14.19238983831233
F          -0.83648167940271   -9.80241122206544   15.52916478371636
C          -0.22337194795349  -10.73261963298192   13.43526688411999
F           0.32850760259155  -11.77807384082012   14.06745607627589
C          -0.19863509247564  -10.66477377823277   12.07032921775625
C          -0.77620204826381   -9.56649486519674   11.40457309473022
C          -1.38764960885952   -8.53111778513311   12.16896504575089
C          -1.97444937916209   -7.41871480644171   11.52266055166035
C          -1.95314132650300   -7.34693933903228   10.15475331401259
C          -1.33987846941158   -8.38520934950123    9.39993553346348
C          -0.75938367613993   -9.46689436212077    9.99496125132838
C          -1.43395201595820   -8.06356766006769    7.96155731577697
O          -0.84700358223878   -8.61587308581928    7.05848001540161
C          -2.25993606613427   -6.82990416168733    7.88613422027617
C          -2.47848715334761   -6.34482949820095    9.22947516160762
C          -3.09411802761725   -5.17245094952436    9.59557765576441
C          -3.58707829824819   -4.20025199942519    8.70263337796225
N          -4.00522183608683   -3.36340196025195    8.03510096195845
C          -3.29174795657610   -4.76597222778608   10.93099611651812
N          -3.48518554639079   -4.37804810807777   11.99433256361751
C          -2.63917120021196   -6.21752633503699    6.72123556560283
C          -2.68468494804487   -6.82485736646737    5.44525514114665
C          -2.96559031158448   -8.19595482320175    5.26615294764233
C          -2.95616598899396   -8.81129268280138    3.96164843043662
N          -3.34664672042135  -10.08561594295237    4.02338738904021
S          -3.62491821250658  -10.48537182118153    5.54295322909504
N          -3.33434664621759   -9.05867689212554    6.21505431253627
C          -2.59320545941313   -8.10774167190883    2.78478452637995
C          -2.50394536904619   -6.68646980243952    2.93329483793034
C          -2.31915126134130   -5.74619861588957    1.94410662707525
S          -2.22693823017815   -4.15945530393254    2.55732784754303
C          -2.40745673182419   -4.69704500253870    4.16047136129664
C          -2.55944907128081   -6.06440049198804    4.24339208596456
C          -2.31164962328127   -8.81658325266655    1.60273526170219
C          -1.97244783457814  -10.18485028192743    1.52952562104019
C          -1.80407833582247  -10.67176195182711    0.18615643103074
N          -1.56626077869071  -11.96583402645089    0.00191877614856
C          -1.44841120790906  -12.75696893345089    1.04796420444746
C          -1.16562474512525  -14.18743337452088    0.78497902178487
O          -1.10362909391221  -14.64394876248073   -0.33925154242402
C          -0.90660193120168  -14.99407441163120    1.98842371187976
C          -0.96795803654278  -14.50925958369405    3.23439056695305
C          -1.35310909321430  -13.12291477231946    3.54864685435725
O          -1.62790826576804  -12.76089868788645    4.67606839996120
C          -1.49235767966168  -12.23919134114059    2.37105793409859
N          -1.73600900710392  -10.96425537910309    2.57499682921814
C          -1.93573916250257   -9.66811967496426   -0.80640619801929
S          -2.30205515836668   -8.15261900335731   -0.00153341121680
C          -1.83487050294246   -9.67042964981932   -2.21451792072111
C          -1.97770002739604   -8.42253613989511   -2.88266250083462
C          -1.82911943040198   -8.23732293532234   -4.30368874209790
N          -2.02622947771942   -6.96533772420124   -4.65963418353510
S          -2.34035077528009   -6.08547894637381   -3.35882674839615
N          -2.25957702990182   -7.27228177181508   -2.27422204640603
C          -1.56324387683997   -9.31385903960433   -5.17272944328947
C          -1.48477778533100  -10.58671091847857   -4.53835983458647
C          -1.23707202887579  -11.77589725941968   -5.18988438567849
S          -1.16095261534979  -13.09665428953021   -4.12350061399771
C          -1.43986599471289  -12.10807106374250   -2.77364722420012
C          -1.59584026743767  -10.77736008494077   -3.09689177404859
C          -1.46928418596615   -9.17722366441404   -6.57632098426427
C          -1.14182457423655   -8.08972717819607   -7.33892629681165
C          -1.53810614237253   -8.08400716212905   -8.77258758767358
O          -1.97239722467342   -9.01892674576158   -9.40696642047675
C          -1.32984542725046   -6.69527087089365   -9.22982714145406
C          -1.63380147387493   -6.13278424978320  -10.43518230152520
C          -1.35527877104585   -4.76266960595400  -10.64343863129652
C          -0.76912637218027   -4.00156061001916   -9.59098961080258
C          -0.49568609258580   -2.63579017540163   -9.80432979991095
C          -0.78756502705406   -2.05381102710762  -11.00611139231325
C          -1.36694855420064   -2.80747712828492  -12.04590161062340
C          -1.64561631744720   -4.13404489345993  -11.86957286680909
F          -1.64424193744773   -2.21066579220038  -13.21356572116784
F          -0.52439619838351   -0.75530303008579  -11.20671410376266
C          -0.46142390116971   -4.61416778386733   -8.35389131538390
C          -0.73287023364553   -5.94408001072700   -8.17724260329541
C          -0.49727897223608   -6.83645425586688   -7.04443933220030
C           0.35755700325604   -6.57878017602711   -6.00111011146495
C           0.76632269703573   -7.54680021438974   -5.06515907155240
N           1.14349531508359   -8.30592931434752   -4.29002775108764
C           0.96865834125493   -5.33157465653162   -5.77088382887431
N           1.46815331427115   -4.33099146601482   -5.50985594225963
H          -1.85525644292239   -7.85649838980878   14.16924582241461
H           0.26736422641998  -11.45661110959462   11.50508894302845
H          -2.42644881273820   -6.65164328166912   12.13024085624079
H          -0.29785641496064  -10.23860819953933    9.39804995644689
H          -2.94619878447614   -5.18146628131254    6.76194154741370
H          -2.24431752860126   -5.89416109382810    0.88712726755329
H          -2.41326752359408   -3.98095814011808    4.95715909802453
H          -0.65968389062181  -16.03022566907764    1.80069514317615
H          -0.77657827490712  -15.14043982325327    4.09154831378406
H          -1.09369356276218  -11.93145142671172   -6.23943534918503
H          -1.46490832099627  -12.55408042171544   -1.79981971601292
H          -1.76716696721617  -10.04319032845798   -7.15933684581942
H          -2.07922877981084   -6.72373691794119  -11.22095702679788
H          -0.04926922490368   -2.04469426112323   -9.02001065884874
H          -2.08905810944332   -4.69739182247632  -12.67561666633650
H          -0.02381561448917   -4.01254850503444   -7.57344170348317
