136
 SCF done       -263.654452434465          0.000563079424
C          -9.92274022749458    2.54882236647513   -2.51873827843237
C         -10.28026696663255    2.93888655329374   -3.77878104729622
F         -10.67698556769667    4.19804330481579   -4.00710537263574
C         -10.23776894731265    2.02594637265917   -4.85153038677251
F         -10.59512625383976    2.43581776334661   -6.07655803073315
C          -9.83748669087048    0.73491381306302   -4.64928533109544
C          -9.46357371555159    0.30249910705853   -3.36221405564422
C          -9.50672035175003    1.22408782469194   -2.27634208287338
C          -9.14018827799925    0.81228379065800   -0.97443119938458
C          -8.74473343485927   -0.48265051530338   -0.76333759263489
C          -8.70464319165592   -1.39396524383822   -1.85446162202846
C          -9.04944080469622   -1.02650976164465   -3.12265069117510
C          -8.25861347395702   -2.71363383950796   -1.36951439048502
O          -8.10172636033172   -3.70901571400529   -2.04881924259397
C          -8.04591156960961   -2.56318890694337    0.07964463119824
C          -8.32914757042926   -1.18783949831548    0.44748810291449
C          -8.23663490297561   -0.62065049772490    1.69297205419508
C          -8.52609848485820    0.73286274539980    1.96705565627182
N          -8.74543096748903    1.82137358355890    2.25887951685337
C          -7.84686439823772   -1.27641507497663    2.87939112226571
N          -7.54473900462609   -1.72870153182440    3.89158721664100
C          -7.66372797075443   -3.55291671000994    0.94540549173252
C          -7.39725533708573   -4.91699672110644    0.72314844717662
C          -7.07135229630556   -5.76724782086019    1.76774626238957
C          -6.87038884518957   -7.09862775877091    1.38368670551973
C          -6.56912135221829   -8.20842938724880    2.21343203090156
C          -6.51224100771226   -8.07293308138516    3.65153420679037
C          -7.35164396716311   -7.36464161954948    4.46803888622351
C          -7.01029265144778   -7.45361814934633    5.83067595170700
C          -5.90853564871180   -8.21887881141620    6.06474204133437
S          -5.27527613493306   -8.86760475833804    4.58797296778743
C          -5.25361472890981   -8.52441822061706    7.36251321698266
C          -6.36798908972325   -9.41605421515991    1.56431316685969
C          -6.49609058103673   -9.58120119716241    0.15865363668067
C          -6.82639486434730   -8.48316669701962   -0.66297747688759
C          -6.99607096559522   -7.25740801880396   -0.02297191536057
S          -7.42814700098753   -5.76500584234638   -0.80833219748757
C          -7.00247097170110   -8.60163188782011   -2.09538245467481
C          -6.64899175036129   -7.69945329633322   -3.06100944866832
C          -7.00171669407257   -8.10410426718175   -4.36240071974421
C          -7.64019283409598   -9.30518745665017   -4.40424991624399
S          -7.80671639643749   -9.97329950854929   -2.81461839696722
C          -8.15701034356916  -10.04002831746434   -5.58818557546767
C          -6.26496175632631  -10.91914889662449   -0.23067912522964
C          -6.00709692271219  -11.76428491373008    0.81140691378937
S          -6.00335691782198  -10.92963842106207    2.34990174318339
C          -5.79769650683225  -13.17984893114153    0.74538175030869
C          -5.53242539866315  -13.95227904948291    1.87224541057679
N          -5.39877621186455  -15.26886177591268    1.89463589538234
C          -5.51047285888032  -15.98913836039159    0.79270910585952
C          -5.75044937009748  -15.33832429809229   -0.44993528791155
C          -5.89228881903058  -13.90736063271142   -0.46999676912550
N          -6.11831210913718  -13.45233964137423   -1.70186904985874
S          -6.14951320056244  -14.69281665599486   -2.72140153038219
N          -5.88125990949660  -15.87147226062789   -1.66249029070300
C          -5.41394827710536  -17.41110046687100    0.91521258980706
C          -5.55354436196903  -18.35990766461123   -0.05915318991387
C          -5.45892901068233  -19.68001463028371    0.43113183674271
C          -5.54635196429863  -20.88089410832613   -0.30683960071606
C          -5.81397899815948  -20.88695188811055   -1.72937161013339
C          -6.69044350874323  -20.11682015648495   -2.44207180626031
C          -6.68212968471965  -20.39654356043707   -3.82266194227995
C          -5.79809790566248  -21.37063449824490   -4.17413326670906
S          -4.95712533762974  -21.97896796457759   -2.78733708929366
C          -5.49802270325669  -21.91116432718131   -5.52487724181772
C          -5.34351161613520  -22.05118287281858    0.40915998638672
C          -5.04459508000374  -22.08898126498563    1.79614698605724
C          -4.96220980397255  -20.88618535857436    2.53494349199442
C          -5.20018202215016  -19.70981424777356    1.82715345253582
S          -5.13511727662116  -18.09840154556259    2.49167686423386
C          -4.62687286333205  -20.85529061932422    3.94071785691401
C          -5.11398615502624  -20.01659296430980    4.90678274612302
C          -4.52619220208081  -20.21675015714735    6.16939429226467
C          -3.57591754432848  -21.19236530557511    6.17907724516827
S          -3.40225400420040  -21.90295963622784    4.60967519872163
C          -2.74619078020325  -21.66709004981034    7.31618602272216
C          -4.92202755313866  -23.41380153632091    2.26275164468302
C          -5.07746589537772  -24.36966788146540    1.28845573477397
S          -5.46371952742896  -23.64977120090864   -0.26138121629230
C          -5.04175698144222  -25.77060573243239    1.49466966747005
C          -4.99103173433811  -26.76566070400436    0.56851764272438
C          -5.45769365715729  -28.13185926982170    0.92535707662853
O          -5.61957247231643  -28.58189911106861    2.03566747593036
C          -5.74740835462252  -28.78457735112379   -0.37029433601352
C          -6.32615954293316  -29.99755979879876   -0.60800787242414
C          -6.54470926443055  -30.40476190057699   -1.94345809134012
C          -6.15849190800424  -29.54247799777690   -3.01062811174300
C          -6.38924676936654  -29.95223443609376   -4.33928903021852
C          -6.97286421833353  -31.16071539294367   -4.59649908285991
C          -7.35220047582537  -32.01332238133418   -3.54072211768904
C          -7.14269608916367  -31.64473468944252   -2.24156830237039
F          -7.92380570751207  -33.19273977496327   -3.82261139647434
F          -7.19168240040568  -31.54735680619260   -5.86103271907900
C          -5.54962879433809  -28.29682893595015   -2.73460048563770
C          -5.34406813088192  -27.92574417414099   -1.43324693653070
C          -4.71483472606935  -26.74337199481701   -0.85338829463557
C          -3.81146579533301  -25.92965883051057   -1.48390001760892
C          -2.96939917545711  -25.03809092532648   -0.78320107956268
N          -2.21911945035757  -24.36761798549370   -0.23154931431761
C          -3.56695773279843  -25.95864675073345   -2.87012969685618
N          -3.36569113149656  -25.92964677733729   -3.99995199322542
H          -9.96123716154126    3.26029618951041   -1.70865764311037
H          -9.81041885727733    0.04795176357322   -5.48060400641309
H          -9.18571931694840    1.53535564036899   -0.17662821378738
H          -9.00977456897871   -1.74152496543684   -3.93029913614077
H          -7.55838250677686   -3.27314002652816    1.98677904007064
H          -6.96903449860420   -5.41439159224699    2.77848328896209
H          -8.21672949661520   -6.83708157722291    4.10790784660220
H          -7.56481439338994   -6.96436190570497    6.61155787666477
H          -5.78996462600581   -8.03751595296091    8.17329192855208
H          -4.22136207114337   -8.17514347356925    7.36378170248464
H          -5.24051038446407   -9.59899221563180    7.54285543095564
H          -6.11988573485610   -6.78754747859604   -2.85401981860173
H          -6.78950062315632   -7.51897584100465   -5.23939601434515
H          -7.95663169284508   -9.47192372076649   -6.49339877396231
H          -9.23181807536494  -10.19956527619149   -5.50413231380609
H          -7.68131562946012  -11.01699595442694   -5.67280726181014
H          -6.28442423680080  -11.26977164666080   -1.24501126493677
H          -5.43161548115389  -13.47062959370640    2.83635559756723
H          -5.69906162852609  -18.10403430399925   -1.09151978647777
H          -7.35361501441623  -19.40327078701655   -1.98690588002264
H          -7.31480417414196  -19.89190580635376   -4.53135943431891
H          -6.23259863273110  -21.55418212841694   -6.24285202818072
H          -5.50731331188331  -22.99988154830996   -5.51384428616315
H          -4.50737176717996  -21.59398527899749   -5.85179372663597
H          -5.89735755697161  -19.30313320769953    4.72822120086244
H          -4.79725556651241  -19.65132688288229    7.04306584365077
H          -2.98538273250562  -21.10058018994785    8.21278958851031
H          -1.68605372884507  -21.54591656634339    7.09512736374897
H          -2.92535324435622  -22.72459060568382    7.50940297489439
H          -4.71084597255178  -23.67442989352664    3.28367625077676
H          -5.16310017270423  -26.09524900958576    2.52343737683627
H          -6.61624132532404  -30.63773356386381    0.21120095619085
H          -6.10167879471305  -29.31321535111972   -5.15950609274765
H          -7.43896078184560  -32.30841217744121   -1.44439658704557
H          -5.26959507393589  -27.65903850531638   -3.55802662173819
