157
 SCF done       -280.896663741708          0.000660427364
C         -16.78173411095769  -12.50910080879106    8.49160091863081
C         -17.43811138108479  -13.69294659370815    8.67945164370114
F         -18.47152575454403  -13.76245658537865    9.52845205069731
C         -17.03861768253830  -14.85258927425055    7.98506209293147
F         -17.69999671584993  -15.99954753022341    8.18909228500731
C         -15.98761572248119  -14.81206561344048    7.11217184632127
C         -15.29083518818964  -13.60729581015894    6.89681081868674
C         -15.69511078695269  -12.43336405109866    7.59708896475019
C         -15.01542591541433  -11.21145628374425    7.39055109061244
C         -13.96619768530603  -11.16840168627049    6.51058315460920
C         -13.56209626317639  -12.34629308123026    5.82195079329245
C         -14.19965639340882  -13.53953992947998    6.00151199025999
C         -12.40825447607902  -12.04463779828464    4.94509652064822
O         -11.83232546339145  -12.82830723837686    4.22623702212508
C         -12.07938661659740  -10.61884405149766    5.21749636039920
C         -13.10927091572212  -10.07295262510543    6.07995798641154
C         -13.31174936612026   -8.73903033875987    6.32158979748416
C         -12.58141752205954   -7.71583637859233    5.68680667294449
N         -12.06610290349004   -6.83630689553805    5.15696905160168
C         -14.32793894371445   -8.23518165928021    7.15881422583222
N         -15.13143585562238   -7.78080679686975    7.84085571831058
C         -10.88834704873018  -10.02147594597141    4.94140255419648
C          -9.90275296089332  -10.47580654250818    4.00149780407768
C         -10.27308645005362  -11.02377897386523    2.76685502867103
C          -9.31498187579115  -11.37709178668641    1.84748758000720
C          -7.95537280179736  -11.23516637077430    2.13643256316170
C          -7.58235243858910  -10.72942771428963    3.38449861378726
C          -8.53822456823961  -10.31692281634273    4.28320348004277
C          -6.95025532084588  -11.62469638125703    1.13973182350309
C          -5.86022047447211  -12.48313125192144    1.62190732249350
C          -4.54184480250393  -12.26272526818055    1.22493465497197
C          -3.52433035201762  -13.06611309821537    1.70141563979231
C          -3.80381746722362  -14.09855370659491    2.58245261829572
C          -5.10809730856727  -14.31623006394583    2.99422894637675
C          -6.12890389182416  -13.51154823403097    2.52425304536634
C          -7.05901225871763  -11.19744918302961   -0.14286620192214
C          -6.25725765297271  -11.73447335952742   -1.24815610980962
C          -6.03036197345557  -13.10538914496421   -1.36866206796633
C          -5.30536767278653  -13.60307963047514   -2.43360622465727
C          -4.79545249853503  -12.74391895151702   -3.39398066600643
C          -5.02525695673695  -11.38203861989826   -3.28974905232948
C          -5.75673566283133  -10.88028634641063   -2.23007791163957
C          -8.00923595308242  -10.13006545410780   -0.49168024486826
C          -8.05876584667082   -8.95792126706368    0.26306612650422
C          -8.94811798651265   -7.95397123989694   -0.04779809635224
C          -9.82918718908790   -8.08754403594723   -1.12332124443707
C          -9.77243802866629   -9.25727757197371   -1.88484338100489
C          -8.86658620502718  -10.25276778739220   -1.58253805268378
C         -10.78553169578550   -7.01966048779421   -1.41434051596344
C         -11.29169187749996   -6.74168370503842   -2.66952095838219
F         -10.88073121753139   -7.43969351344788   -3.74811380455729
C         -12.22895348765660   -5.72375224629328   -2.93497169903485
F         -12.63674316291213   -5.63451054566171   -4.21748320600245
C         -12.74611862152600   -4.88023453720644   -1.97138924319514
C         -12.23871226934974   -5.13123874173599   -0.67656645133397
C         -11.28228780724752   -6.15863954498226   -0.40750357643207
N         -11.01271895318216   -6.10990098421649    0.90746845508484
N         -11.74563246833426   -5.13213637388159    1.35775209630169
N         -12.49036649288293   -4.51136052730404    0.48776342648063
C         -11.71515433640401   -4.73163316508702    2.73049209328852
C         -13.74028448317815   -3.84097521986550   -2.23580188495651
C         -14.68108449783178   -3.51369305423052   -1.25672891821519
C         -15.65459196338110   -2.57029165382851   -1.50134929887212
C         -15.72560061166546   -1.91877490490001   -2.73346298499488
C         -14.77509849479375   -2.23347445218276   -3.70449186363770
C         -13.79262655701083   -3.16863098168349   -3.45847072521319
C         -16.81079283367627   -0.97600581057091   -3.03052993811319
C         -17.43283531712226   -1.12959963944850   -4.35469963188141
C         -17.70656627123223   -0.01588265253727   -5.14741376205825
C         -18.26505124893636   -0.17034496082516   -6.40128332192872
C         -18.55982015526859   -1.43547368437323   -6.88347640597900
C         -18.28125296615674   -2.54873986645246   -6.10811236753672
C         -17.71503833458975   -2.39915507628757   -4.85629897387686
C         -17.22799612367580   -0.04673607222355   -2.13577473018425
C         -18.46793512708526    0.72659299210677   -2.31323531886908
C         -19.64574058948664    0.10654981057739   -2.72746129065761
C         -20.80676883188655    0.83991248353932   -2.87769629222966
C         -20.81129594236522    2.20046143441435   -2.61563266294698
C         -19.64951212409463    2.82169392350417   -2.18835289606722
C         -18.48608625100904    2.09217254444127   -2.03072236351654
C         -16.45737716819543    0.29039627324991   -0.93616868795463
C         -15.07781885629134    0.50261535253109   -1.01168062626809
C         -14.38109874313415    0.97057536629755    0.07643544347874
C         -15.03046308794062    1.20031368105473    1.29645746230159
C         -16.39356391651358    0.89961535057196    1.39526854054623
C         -17.10006530235434    0.49249448784685    0.28753484036756
C         -14.32827814237079    1.72208618837318    2.43782843354211
C         -13.31370762928060    2.62097871537884    2.45135109964027
C         -12.47156970342372    2.77233683190337    3.66964053375960
O         -12.69852067984494    2.32207289151536    4.76854898479667
C         -11.28445713062365    3.53497280700669    3.23039686776937
C         -10.15889754272476    3.84987311884756    3.93578125340742
C          -9.12819593919530    4.57520003081085    3.29750070030198
C          -9.28178305669840    4.95249288575800    1.93170368276751
C          -8.24697700991597    5.67012290028625    1.29827904929264
C          -7.11562056783203    6.00117780448382    1.98919737317003
C          -6.96564092931389    5.62931028916277    3.34044838903543
C          -7.94969702999368    4.93118679652587    3.98209380603922
F          -5.84453066923202    5.96651013626620    3.99272512627590
F          -6.13379356568681    6.68475845312752    1.38625374733768
C         -10.46054019272003    4.61651933932138    1.22819174295142
C         -11.45318298692093    3.92563849870783    1.87134217682550
C         -12.77384846029224    3.49098956295008    1.42228679037951
C         -13.45042528057503    4.01875993435474    0.35559677594302
C         -14.81673664317500    3.80293595874096    0.07848003973581
N         -15.93493580471174    3.74489001941580   -0.17355820885124
C         -12.88064522794393    4.93243503585702   -0.55571752155967
N         -12.45926752367540    5.66371811166876   -1.33369182579315
H         -17.10188093581135  -11.63028859194693    9.02926773304062
H         -15.69417632466170  -15.70847298120030    6.58863796699866
H         -15.33661265110439  -10.33966908048312    7.93807036226524
H         -13.87815883347095  -14.41930219880009    5.46502782718842
H         -10.62304406299472   -9.13208961285176    5.50398622396101
H         -11.31720421725467  -11.12425661419470    2.51944053609931
H          -9.61172871977164  -11.78220888896808    0.89206233509235
H          -6.53291326501268  -10.62997637187864    3.62272413857867
H          -8.24100767037207   -9.89587177092277    5.23320258086762
H          -4.31860469593070  -11.45081886506282    0.54860814993980
H          -2.50707352995235  -12.88463514560658    1.38691703970183
H          -3.00694010498805  -14.72765663709608    2.95027631860362
H          -5.33089049699441  -15.11637610391235    3.68489997248737
H          -7.14731602646132  -13.68643470844542    2.84179096515236
H          -6.43930715435038  -13.77899867987688   -0.63011587673682
H          -5.14025516675238  -14.66714859487227   -2.51822066846288
H          -4.22657522297888  -13.13556832552833   -4.22404824284156
H          -4.63577267294543  -10.70872583575410   -4.03915783669553
H          -5.93431526674999   -9.81729954171100   -2.14850839573771
H          -7.37738646780942   -8.83117139194061    1.09158183996988
H          -8.96983488910333   -7.05431727360884    0.54457048409463
H         -10.45040072625220   -9.40648093045351   -2.70936268615594
H          -8.83845351560953  -11.15238658904871   -2.18076610133450
H         -11.81565954575850   -5.60179724166842    3.38014062201181
H         -12.53322480184739   -4.03503550996757    2.89603643343810
H         -10.76628298039723   -4.24126141924143    2.95268138809117
H         -14.65098162815063   -4.02090109594766   -0.30607049641246
H         -16.39194652225908   -2.35237731656990   -0.74259244876197
H         -14.80606694097076   -1.72800267657052   -4.65909618168717
H         -13.05892158490954   -3.36898003579279   -4.22272005636589
H         -17.46618475928892    0.97056409282813   -4.77924839932961
H         -18.46889277902787    0.70019573724995   -7.00725092542162
H         -18.99998315769956   -1.55338151749256   -7.86250502050159
H         -18.50361696865178   -3.53769455257084   -6.48138580696904
H         -17.50055498224279   -3.26874731502213   -4.25119816877036
H         -19.64989359522175   -0.95655858607617   -2.91893086665561
H         -21.71336236639427    0.34719522660173   -3.19762066061032
H         -21.71936631420393    2.77217830529298   -2.73831234733288
H         -19.64764558795637    3.88012539907996   -1.97435067013446
H         -17.58369727785981    2.58278969980038   -1.69587950892848
H         -14.56606295683256    0.33533110971120   -1.94756432635304
H         -13.31638781437348    1.14173946857632    0.00065649961007
H         -16.90030817823554    1.05237068468084    2.33665919612240
H         -18.16360018748861    0.31770894000061    0.35971317185480
H         -14.61035097325220    1.32531004919292    3.40840375637384
H         -10.05698679661104    3.55088617712169    4.96792089348572
H          -8.34788916312483    5.96616118638471    0.26577949070187
H          -7.81976303484692    4.65426146641628    5.01657298831286
H         -10.54652727003221    4.90812862747509    0.19365025238653
