95
 SCF done       -198.311134346443          0.000453932465
C         -11.37045259099869   -3.43980148616522   -5.38598769898099
C         -11.86263704527356   -4.10332396578300   -6.47496730536764
F         -12.79522503164349   -3.53023044968373   -7.24790441248903
C         -11.39889773994408   -5.39374125135603   -6.79857322794567
F         -11.89984314135257   -6.02153145560468   -7.87176581074763
C         -10.44830972729302   -6.00331742504266   -6.02842078933367
C          -9.92238360032023   -5.34561125258897   -4.89991209843843
C         -10.39054924621827   -4.04082588534465   -4.57098797150386
C          -9.87865758434818   -3.36118111125750   -3.44085977198339
C          -8.92913461882205   -3.96849906564778   -2.66301124759827
C          -8.46855917936565   -5.27178485692099   -3.00107568331974
C          -8.94094122088092   -5.95275839052241   -4.08479329820575
C          -7.46142044950383   -5.69546134417859   -2.01278042641433
O          -6.86507347753281   -6.75870449297026   -1.99939198294164
C          -7.33633621937376   -4.59329427618515   -1.05720016181206
C          -8.23108667218000   -3.52737760143385   -1.45526749651715
C          -8.41401720618430   -2.31608853303823   -0.83744421639837
C          -7.74860034430861   -1.87373555899819    0.32472125842279
N          -7.25219237420407   -1.43575542884364    1.26367347308386
C          -9.31237486162628   -1.32761243777103   -1.29062265389761
N         -10.02566890924289   -0.48364270569801   -1.60250260734081
C          -6.51638423378309   -4.59935873608150    0.04629423017781
C          -5.63539539476486   -5.58364889792630    0.50107379184215
C          -4.88730634987082   -5.44582957017917    1.67391013513076
S          -4.74843638629967   -4.16054243578677    2.81182169811869
C          -3.56722622311207   -5.08818292066344    3.73074423384938
C          -2.97826335535466   -4.48385973666587    4.95145198920264
C          -3.31662324503335   -6.30315413916416    3.19117452039525
C          -4.06942663733643   -6.54608360596921    2.00835368346208
C          -4.16699201323749   -7.55626374886190    1.05284126838119
S          -5.26447303923404   -7.13391125749698   -0.22649256394453
C          -3.52999969373451   -8.84108826983545    1.06617655365132
C          -3.18952106968666   -9.53019447645445   -0.09430496718763
F          -3.40214413692172   -8.95820506169282   -1.28978864356453
C          -2.59404236321708  -10.79817171388710   -0.10762647817223
F          -2.33146565202153  -11.32634837483533   -1.31405368191298
C          -2.31556317107290  -11.52367184041695    1.04525801969557
C          -2.70070300573436  -10.86686371625064    2.23949833526390
C          -3.25647335948578   -9.55487340606020    2.25786729399181
N          -3.49443135342850   -9.25020344404147    3.54167795491310
N          -3.10430439417618  -10.29803895785824    4.20964238408204
N          -2.62658918983901  -11.28828856410807    3.50807532964532
C          -3.23463953256369  -10.36567588287416    5.63159747686603
C          -1.69767822330346  -12.81154944726552    1.10294033224814
C          -0.90000791637746  -13.50202804157927    0.20819700363667
S          -0.26342455633402  -13.15740601805585   -1.36573753314072
C           0.60730384668147  -14.67583674814029   -1.36920632177407
C           1.43486549468671  -15.02771326032888   -2.54801785696062
C           0.42269152257319  -15.39954325411115   -0.23428926991977
C          -0.42917738393284  -14.75317696818828    0.69109399965906
C          -0.85905915546497  -15.03192871519964    1.99189249187801
S          -1.86958307733822  -13.72667974505804    2.56975414354632
C          -0.60881253968798  -16.19878105239689    2.72781030962204
C          -0.84717935215924  -16.43321926100510    4.05708175764940
C          -1.05143267859722  -17.81786253677932    4.54306601840885
O          -0.78037363636100  -18.84640805464994    3.96550002651596
C          -1.72220872156392  -17.66628811058307    5.85546118441377
C          -2.23500392383082  -18.62854059154416    6.67502027290988
C          -2.86708410219631  -18.24089456487137    7.87912489990612
C          -2.95232533069769  -16.85793310581774    8.21240422486129
C          -3.58928489330290  -16.48052061005279    9.41128544558138
C          -4.11529083960966  -17.43031079244494   10.24136701373376
C          -4.02946419712561  -18.79718042277111    9.91173182763138
C          -3.41793249173783  -19.19528302708209    8.75580142865715
F          -4.55542059440826  -19.70722993011367   10.74339136821190
F          -4.72067332030081  -17.06705514856960   11.38072375939163
C          -2.40015720866551  -15.88335905448147    7.34921353540720
C          -1.79566478324178  -16.28313560789462    6.18880314109191
C          -1.11583849713473  -15.52528049504711    5.14328819115157
C          -0.59725529876799  -14.26058768101518    5.28485022828306
C           0.36927708283150  -13.73263819916627    4.40342835026574
N           1.20604511040824  -13.30514065669849    3.74385284689306
C          -0.94590543633425  -13.36695602834210    6.30709374417793
N          -1.25529723739454  -12.55754535297390    7.06363548737332
H         -11.73664140985663   -2.45221502613094   -5.15258919635953
H         -10.10308905649564   -6.99152975579852   -6.28916719526421
H         -10.25546304009442   -2.37564041974046   -3.22101166603092
H          -8.57169615412646   -6.94027402652457   -4.31602723795215
H          -6.54081944631524   -3.72600116635771    0.68833378790711
H          -2.48458186047692   -3.54282358658118    4.71089252874154
H          -2.25201343879152   -5.16162717133195    5.39271608607110
H          -3.75532273898619   -4.27019671112100    5.68483938255324
H          -2.62833295838910   -7.01034543414138    3.61211328904123
H          -3.22737615182603   -9.35284775843452    6.02757003913102
H          -2.41621183817879  -10.95387139667207    6.04901070533138
H          -4.17872446607968  -10.84593722701900    5.89557710963698
H           2.23140132308981  -14.29632370738043   -2.68346882857958
H           0.82881864122143  -15.02492763626630   -3.45341773901731
H           1.87793251931611  -16.01189729021052   -2.41935495772758
H           0.88210870215143  -16.35490066087513   -0.05824311689744
H          -0.27409932296517  -17.05869772870638    2.15645312491385
H          -2.16133918237870  -19.67244059672167    6.41084069772310
H          -3.66125964362523  -15.43835830820411    9.68070517823853
H          -3.36069631757093  -20.24588718957871    8.51780027317215
H          -2.47787678015866  -14.84185698801858    7.61980725109547
