99
 SCF done       -219.582098306825          0.000843186923
C           3.41819979041817   -0.07973076748775    2.20029197693474
C           4.75911755793534   -0.34438056343570    2.20970567866320
F           5.64194156221125    0.65455405467397    2.34146911351826
C           5.22993229022661   -1.66630153023790    2.08157203953256
F           6.55004594015116   -1.89698002325995    2.09350934631949
C           4.35296749453659   -2.70593213813700    1.94579778109827
C           2.96551992256271   -2.46547380225621    1.93175994061098
C           2.48804026471015   -1.12931591828523    2.06235912591198
C           1.09903743217032   -0.86413469229333    2.05411288266014
C           0.21658161092503   -1.90332322702981    1.92187487215960
C           0.70218862464787   -3.23362419490730    1.78811863739689
C           2.03651713009033   -3.52041212428340    1.78893933663892
C          -0.43643409090589   -4.16337644822559    1.64697675428329
O          -0.36591867147266   -5.35767618340432    1.43731704353918
C          -1.65213686277015   -3.31918493152155    1.71409877664501
C          -1.24285088449938   -1.93996629790170    1.89342820259087
C          -2.07068706795117   -0.86417003603563    2.08507632258841
C          -3.47873900192389   -0.92324271432722    2.16206565773691
N          -4.62120119497601   -0.88454668298233    2.27117433274884
C          -1.61452703826858    0.45864126748268    2.26288642953842
N          -1.30436468450743    1.55443648475581    2.40736253254286
C          -2.92628600864014   -3.73278133175724    1.42934542178544
C          -3.42906899451791   -5.05636580435652    1.35360095085878
C          -4.46049575030750   -5.31923320870764    0.42909486803984
C          -4.94685378475251   -6.65612044304054    0.17218505738674
N          -5.91874236765780   -6.65633422257817   -0.75059026862835
S          -6.16032609301594   -5.15868560532490   -1.25175636742330
N          -5.07033093258853   -4.41623195623218   -0.34378698178824
C          -4.46068616103198   -7.77286850502304    0.87084299716141
C          -3.50812090826828   -7.51160485996230    1.88112067164595
C          -2.90032467798582   -8.43199911480687    2.71840719237678
S          -1.86815488489602   -7.69898106796820    3.84279019233812
C          -2.15833367901169   -6.14674724345863    3.21600903635627
C          -3.01823506045799   -6.16711656141596    2.14012275127422
C          -4.97430223575819   -9.08315588332583    0.53499393793971
C          -5.46638448065219   -9.99691608974242    1.48799188566306
C          -6.01442021802912  -11.27265270585628    1.10177198498836
N          -6.56149639294675  -12.07168567026995    2.03176322197583
C          -6.52755820908693  -11.71830128077448    3.28726963922847
C          -5.93595534717481  -10.46833676669346    3.68056851414811
N          -5.45605772987881   -9.64537907699551    2.78714731518567
C          -5.87528390359176  -10.10359393496571    5.04957913531187
N          -5.81597984291436   -9.83905307829276    6.16220364702572
C          -7.08433277199187  -12.58178238369200    4.26460081912601
N          -7.49641021171891  -13.26864290511270    5.08290173109922
C          -6.05477050737358  -11.69829414493641   -0.24400979955091
C          -5.59448681716524  -10.77352452798838   -1.19716787199013
C          -5.05966766697848   -9.48649661967427   -0.80876582090323
N          -4.58812368776546   -8.81222463986990   -1.86205657316126
S          -4.81236123996523   -9.67980758434269   -3.18359833497831
N          -5.49745016496657  -10.96544706779436   -2.51749858634867
C          -6.45828462212503  -13.04188038573765   -0.58029432172314
C          -5.98203887951141  -14.12785871567679    0.17055397106507
C          -6.30823926581997  -15.50014318018593   -0.15514708895666
N          -5.68248132062464  -16.35778286012874    0.66101954687350
S          -4.79914766046693  -15.53325385983601    1.71280100255881
N          -5.12391774649707  -14.05962873266109    1.19865655525184
C          -7.12542701076112  -15.83787691762657   -1.24900252828937
C          -7.61998652602695  -14.73706032551764   -2.00675501911005
C          -8.49681637858166  -14.80372332388749   -3.06793055534568
S          -8.93704381120717  -13.26263988530180   -3.63983331250165
C          -7.97531815609826  -12.47489787469236   -2.48814143441728
C          -7.30125551505433  -13.36235253806660   -1.67010499533347
C          -7.38766669331235  -17.17258747752074   -1.65168262323547
C          -7.37446695100201  -18.33363935440787   -0.93644600771290
C          -7.26110959220046  -19.62093312586012   -1.67615236138650
O          -7.37577621170259  -19.78077987079350   -2.87014382809656
C          -6.93507208387670  -20.63125332150884   -0.65070050816135
C          -6.62261246711529  -21.94963425045868   -0.81465685307497
C          -6.31801503261476  -22.72971585016251    0.32353695707160
C          -6.33890977819079  -22.12201687451502    1.61246541207282
C          -6.02864556848547  -22.90451686642922    2.74281186494604
C          -5.71598458036960  -24.22740143003652    2.60066067117973
C          -5.69730812793220  -24.82723932262777    1.32567510746568
C          -5.99171002979491  -24.09501429015085    0.20980414010012
F          -5.38636269967622  -26.12625638860088    1.21576946231406
F          -5.42240950370597  -24.96943883806814    3.67674703276956
C          -6.67287747633871  -20.75481185244301    1.75120491719570
C          -6.97345715831574  -20.02027092014566    0.63565031828045
C          -7.38008725421247  -18.62591931436393    0.47653628174796
C          -7.87762241473397  -17.82486866305863    1.47206360113125
C          -8.50138846901604  -16.58575304653314    1.22948947007096
N          -9.04180604508489  -15.58744334478294    1.05790089492168
C          -7.88223961399899  -18.18072166739864    2.83534838370533
N          -7.88025172190932  -18.41951608897797    3.95807905284782
H           3.07443013231504    0.93793554482647    2.30062168115895
H           4.72958030640474   -3.71213762145408    1.84848343981924
H           0.76976841903250    0.15778550947524    2.14954906836560
H           2.37838110970038   -4.53904526776126    1.68536031320337
H          -3.64693814170031   -2.97979694655966    1.13092558458553
H          -3.03183941517568   -9.49349089340549    2.73503459296667
H          -1.70363472187053   -5.29554813074645    3.67878404429013
H          -8.92262792491205  -15.67513470898199   -3.52167421771881
H          -7.95832502037589  -11.40603062273592   -2.45097782130202
H          -7.55773372274294  -17.31557442960381   -2.71487441465552
H          -6.60721794278063  -22.39246228971365   -1.79894109519075
H          -6.04176784023531  -22.46225217771496    3.72670319775706
H          -5.97318149762498  -24.56876179031940   -0.75919745688053
H          -6.67545676424261  -20.32004066175314    2.73782272840501
