140
 SCF done       -267.364008013736          0.000525916354
C         -10.46475831304327  -18.05012620484137  -13.21538628628391
C          -9.60904205553234  -18.02005413872873  -14.28056341439661
F          -9.95880458287350  -18.58877091042847  -15.44180894473711
C          -8.35119539110954  -17.39351968889018  -14.17296622079728
F          -7.53223539866649  -17.37924308483814  -15.23355958536777
C          -7.96600226317129  -16.80626061173135  -13.00054349669035
C          -8.82487955586180  -16.82223431420184  -11.88457620958430
C         -10.09774282503618  -17.45380870662590  -11.99211979591258
C         -10.97733867211719  -17.48205466841820  -10.88554387225006
C         -10.59439753998110  -16.90041339562558   -9.70536266665647
C          -9.31867344793926  -16.27947717731116   -9.60677891444795
C          -8.45002329083710  -16.23038799290393  -10.65819084859161
C          -9.13728081493312  -15.75458602709020   -8.24076809908333
O          -8.16344221813276  -15.15458731137627   -7.82978401114824
C         -10.35705684261120  -16.11877652530539   -7.50021748017700
C         -11.27151479153430  -16.77764824119186   -8.41621631129229
C         -12.55297611753394  -17.19191597141248   -8.15917030528674
C         -13.24259791116793  -17.04320170637899   -6.93746193113739
N         -13.87801796284032  -16.95762818855938   -5.98419211768359
C         -13.38432700568943  -17.81922229789214   -9.11132156259577
N         -14.11025338403956  -18.33410147503801   -9.83643799547195
C         -10.57675650887852  -15.92866952548817   -6.16246336690419
C          -9.77247453138806  -15.32690479258880   -5.17555163287094
C         -10.16150943606166  -15.28624831254628   -3.84713367361573
C          -9.23889658988543  -14.66377523483547   -2.99609487085977
C          -9.33834891557333  -14.47557534722264   -1.59413419940605
C         -10.52323466970564  -14.85487269999905   -0.86190359704421
C         -11.83366259887000  -14.70520964909368   -1.23011753709353
C         -12.74213041243901  -15.18946529491772   -0.27139630102214
C         -12.14144125559792  -15.72141139443978    0.83004448308182
S         -10.41724781831755  -15.61781296532255    0.70783659531162
C         -12.77003987549468  -16.32357020133136    2.02946376289613
C          -8.21232285135911  -13.94752048822707   -0.97830523480519
C          -7.03922044441171  -13.56176511591258   -1.67525988945082
C          -6.98194917703545  -13.65442819902293   -3.07996084997227
C          -8.08230168744932  -14.24009437978749   -3.70545232511791
S          -8.20827632997537  -14.57463090989364   -5.40816399522696
C          -5.85765934973886  -13.15247619834228   -3.84041950392651
C          -5.31051947366062  -13.64165586940108   -4.99423364577218
C          -4.26359313746445  -12.84610258253984   -5.49841730863016
C          -4.01021770749124  -11.73820224882069   -4.74990670583657
S          -5.06572944477934  -11.66500915617618   -3.37847306290718
C          -2.99480867047054  -10.67729971683804   -4.97601229762167
C          -6.00252576244436  -13.18805599658814   -0.78271678779641
C          -6.35095872721032  -13.27920295253462    0.53040149369655
S          -8.03105516180823  -13.72338527344531    0.74311991185366
C          -5.50424809275713  -13.07117803646052    1.66961418969187
C          -5.51214590297276  -13.74921633164207    2.86614001530652
C          -4.56166317624655  -13.21554404395320    3.79843655332411
C          -4.28033113245344  -13.63078545482372    5.09776344115576
C          -3.30043891770945  -12.96645278450772    5.82088984143581
C          -2.58302555244217  -11.89463552494415    5.26275190961538
C          -2.84198370737454  -11.48424042000649    3.97523190057068
C          -3.82713508656326  -12.14331260885435    3.25157173607441
S          -4.31199479081342  -11.79308215313907    1.62166909213251
C          -3.01282981065368  -13.37400435785588    7.14447429770290
N          -2.77089293177731  -13.70050288103371    8.21621743311216
C          -6.34385057744242  -14.90853329731750    3.10444536724349
C          -6.58392692023581  -15.92676001157049    2.23196173839210
C          -7.50933887798445  -16.88754165391552    2.70911964065269
C          -8.02591279661906  -18.01348535093284    2.03241899816940
C          -7.72361747600748  -18.26189269606010    0.63874220124417
C          -7.60127674596396  -17.34679882954865   -0.36928261938190
C          -7.34476729806275  -17.92254460457959   -1.62751661040802
C          -7.25769961684132  -19.28043360744020   -1.59121643092464
S          -7.50596591117675  -19.87657042526471    0.01763381608050
C          -6.99396651740352  -20.22293668482359   -2.70901094670083
C          -8.86137539593843  -18.84366310709345    2.77302761451016
C          -9.22837393210619  -18.57466449563595    4.11781466355187
C          -8.78831672699372  -17.39515727230974    4.76020239926026
C          -7.91962227664849  -16.59433137045250    4.03306462476723
S          -7.22073804671873  -15.10460258070608    4.60186023022232
C          -9.24920399421250  -17.06103454178256    6.08826376605680
C         -10.51603226742042  -17.18647456459530    6.59101484603309
C         -10.62563333202986  -16.78537281542613    7.93572719194610
C          -9.44835898363237  -16.35664335597980    8.46990453086901
S          -8.17036293288053  -16.42356993126131    7.30017676546498
C          -9.17925336141793  -15.87090333409335    9.84716833681312
C         -10.02062816183913  -19.59752025509711    4.66901210929605
C         -10.31935574140022  -20.60972623794465    3.78683482519096
S          -9.58732020300774  -20.32202117220855    2.21630323636134
C         -10.99799141592079  -21.82972532072146    4.00176145651554
C         -11.76350941830895  -22.23664799863962    5.05573557551832
C         -11.96760726114965  -23.69684583456510    5.26419469242162
O         -11.74140015856378  -24.58189898240855    4.47275817253341
C         -12.44755905504931  -23.82677078753730    6.65650287963099
C         -12.68314889867317  -24.95827418850441    7.38173230065045
C         -13.11615229341237  -24.83753042451836    8.72178243864503
C         -13.29203326229334  -23.54085883871186    9.28652124678142
C         -13.71580655704036  -23.42864971066780   10.62585442382452
C         -13.95786485214915  -24.55026260730817   11.36820670841766
C         -13.78683872273712  -25.83190120685095   10.80786132341446
C         -13.37471750172173  -25.97392306478741    9.51238773576745
F         -14.03148380322814  -26.91404284004317   11.55901256195650
F         -14.36138464293727  -24.44079572736956   12.64088878824533
C         -13.05014344119453  -22.38622708767358    8.50715969429463
C         -12.63951912817397  -22.52853177554046    7.20909262037832
C         -12.36451531340621  -21.54071296652904    6.16901486370741
C         -12.82990608640697  -20.24976175976472    6.16765125583069
C         -12.82386661544634  -19.44204858973964    5.01542601934722
N         -12.87090789770538  -18.76819308104986    4.08703313094765
C         -13.41306483178362  -19.61369683931761    7.28013312591361
N         -13.84973306594543  -19.03000226482988    8.16737944989988
H         -11.42419528070715  -18.53327111540674  -13.31516054753296
H          -6.99983731726202  -16.33102624438732  -12.93384577316965
H         -11.93160597985148  -17.96935019315920  -11.00146187956624
H          -7.48937890315004  -15.74930644369933  -10.55376033561378
H         -11.51018512559573  -16.30827448386694   -5.76401733389761
H         -11.08074779875616  -15.72954751055339   -3.50845867237383
H         -12.13764238902400  -14.21355489121105   -2.13704326043962
H         -13.80960193041081  -15.14385992437970   -0.39383714683531
H         -12.44937863565280  -15.80648425375082    2.93338756693196
H         -12.48762501334001  -17.36942454833355    2.13871933973436
H         -13.85267342518621  -16.26272075819313    1.95516252149519
H          -5.62272866611310  -14.55865115758274   -5.45877819786878
H          -3.71911529625070  -13.08780464793266   -6.39376035179101
H          -2.44606151642951  -10.87864084381236   -5.89282541138664
H          -2.28958586948087  -10.63481739720462   -4.14593788663474
H          -3.47029218319734   -9.70016187150122   -5.05754421234098
H          -5.00746941627990  -12.92824985915255   -1.09497279454215
H          -4.81820454429250  -14.45420467930518    5.54184351841690
H          -1.82683427926315  -11.40086104585396    5.85362444353995
H          -2.29599979911594  -10.66704165553216    3.53106689829320
H          -6.08477221889580  -16.00571473807344    1.28355316875027
H          -7.74064410264826  -16.29416318548653   -0.22216767943310
H          -7.23285286708948  -17.34410990652306   -2.52815578174561
H          -6.86513384335636  -19.67141345683796   -3.63729137003777
H          -7.82224127618546  -20.92137399038415   -2.82563254746877
H          -6.09341884782125  -20.80576864643078   -2.51732269696444
H         -11.35325057168844  -17.50080005177641    5.99408517538723
H         -11.54957194448293  -16.81859921032560    8.48542118044466
H          -8.83953931787886  -14.83551713442513    9.82939131603056
H          -8.39905076118981  -16.46635369039716   10.32044430573990
H         -10.08442193581388  -15.93388271086800   10.44604977636427
H         -10.28911625844235  -19.62253638726359    5.70953908245750
H         -10.81376985761265  -22.60071657197584    3.25914083459621
H         -12.54183065364864  -25.93292766569404    6.94016209443797
H         -13.85532355456619  -22.45517510969358   11.06943846705595
H         -13.24811534933789  -26.96190857290850    9.09820861018383
H         -13.18712087390963  -21.41653366305371    8.95922495817381
