99
 SCF done       -227.318452158176          0.000495269498
C          -9.39084786310267    0.20508885310439   -6.74488651793596
C         -10.30634996990407    0.03189750682329   -7.74487689467829
F         -10.79179093984654    1.09094283700605   -8.40416008094382
C         -10.75107092600586   -1.25925918350283   -8.09464297310585
F         -11.64902860286043   -1.39928136284705   -9.07840009452313
C         -10.27408374603226   -2.35961803359853   -7.43902883597245
C          -9.33052451834361   -2.21371033651543   -6.40360969146625
C          -8.87929339836169   -0.90900374196757   -6.04957117406913
C          -7.93222561702409   -0.73723009176264   -5.01393239664290
C          -7.45302651455989   -1.83588364044489   -4.35047400409022
C          -7.91540631964036   -3.13411660266342   -4.70679821917612
C          -8.82527875232687   -3.33256045805302   -5.70523556446956
C          -7.27168590900048   -4.13074420600515   -3.83540954103151
O          -7.42034797994658   -5.33896424165462   -3.88319936802626
C          -6.43069537715729   -3.37331371907174   -2.89970475514679
C          -6.48935751820071   -1.96718765602246   -3.25953474118417
C          -5.75538105593447   -0.94239641196259   -2.72568426506024
C          -5.86263506806399    0.40258576617424   -3.14132394497856
N          -5.90743093676264    1.51180075098124   -3.43225138641990
C          -4.77117535647299   -1.06925026907348   -1.72092558416798
N          -3.94528360592740   -1.08887017781536   -0.92416881196287
C          -5.77329544377799   -3.90676218445237   -1.82461756795703
C          -5.68983773041787   -5.24378629940619   -1.39827203121911
C          -5.02712153936813   -5.58758583207798   -0.21348580362523
F          -4.46114164626062   -4.66808125043106    0.56799519740366
C          -5.02813084075889   -6.94556487424675    0.06289565880804
C          -5.69521947176276   -7.67631012262271   -0.93667161077332
S          -6.33323728217715   -6.67585366406711   -2.18854583215688
C          -5.70096967643619   -9.04496630805800   -0.64484906640741
C          -5.04293848905654   -9.33205316551722    0.55650119930335
S          -4.39938507734492   -7.92887421647263    1.35719504737010
C          -5.04786376576509  -10.69826845886984    0.85934278261478
F          -4.42020107688385  -11.18762213406563    1.92669305076180
C          -5.69459138557281  -11.46691702688133   -0.09359896077688
S          -6.27115781181209  -10.47884823329148   -1.41723668623271
C          -5.91685025530562  -12.88417031338080   -0.10826504532411
C          -6.18685077797551  -13.56295303764037   -1.29191981675323
O          -6.30983540369137  -12.82019800972181   -2.43955827149827
C          -5.28847964693021  -12.99854937835645   -3.41319076780239
C          -6.36807620279677  -14.97179116696424   -1.34817805934229
O          -6.57971801663595  -15.57386440455802   -2.56430904904635
C          -7.83351949219845  -15.30724661269746   -3.17976631536447
C          -6.30215361124773  -15.79005431319667   -0.22498516441228
C          -6.03746181334981  -15.12266276292831    1.00007218357479
C          -5.86794971701316  -13.69011457078117    1.05943332688107
N          -5.67841988985052  -13.37774775531711    2.32507086766552
O          -5.70143533235660  -14.51707733691160    2.99819954687784
N          -5.90799855528013  -15.57516774179193    2.23049403845838
C          -6.48962097989387  -17.20908600612824   -0.32652925742697
C          -6.79756710535260  -18.12596811830194    0.66305761444928
F          -7.09240200809117  -17.81302183783798    1.92252211523937
C          -6.84605183339629  -19.44693134562411    0.19919021368197
C          -6.56629604045980  -19.54449860887541   -1.16826642588068
S          -6.30390459582691  -17.99514521635230   -1.88048310433529
C          -6.60294129187505  -20.87067237669361   -1.60763387434044
C          -6.91266478857484  -21.76081963336472   -0.57005902487053
S          -7.16220011414985  -20.97663916318562    0.96111651654752
C          -6.95084117807288  -23.08573050967457   -1.00945538332648
F          -7.23748245694654  -24.12251362205586   -0.22548057992738
C          -6.62939947874871  -23.24275861272845   -2.34913089411597
S          -6.33820873608466  -21.68296352234220   -3.10250698674814
C          -6.63267083382443  -24.47525150996784   -3.04745535775191
C          -6.03635505313983  -24.79420933758949   -4.22538774212129
C          -6.52923601292969  -25.96345159932745   -5.00893630839988
O          -7.26986430170739  -26.83485475118932   -4.62173537742496
C          -5.96888257120404  -25.77855669029122   -6.36356300939318
C          -6.20429554397290  -26.50688546782388   -7.49405241254523
C          -5.56441741501610  -26.13364598911638   -8.69717355346435
C          -4.69456630448812  -25.00423788871069   -8.70652159307770
C          -4.06256889564760  -24.63605067640447   -9.91135898801241
C          -4.28102048782067  -25.35642000515847  -11.05190971153762
C          -5.14095511798091  -26.47348261601291  -11.04147708079898
C          -5.76970427518978  -26.85505788889666   -9.88952342503483
F          -5.33789739287828  -27.15922966202694  -12.17478641322495
F          -3.67838397109354  -25.00595906625898  -12.19502663027850
C          -4.46595570445170  -24.27165172502586   -7.51948337030361
C          -5.08896707500738  -24.65812483697658   -6.36321817375269
C          -5.00491047482931  -24.13768262416584   -5.00179525223052
C          -3.96582912449987  -23.40108408312911   -4.49852719908736
C          -3.76348572929010  -23.19226092511952   -3.11794188863604
N          -3.54386287981538  -23.04660228052759   -2.00090684025422
C          -2.93379673584728  -22.86045114795808   -5.29226236556341
N          -2.08513515141759  -22.38615770833728   -5.90187539980515
H          -9.06052908950629    1.20006753541725   -6.49030577624547
H         -10.62481899366419   -3.34078271413179   -7.71830344090383
H          -7.61468210054403    0.26323081648462   -4.76936808558848
H          -9.15671434857871   -4.32883665959920   -5.95545186176381
H          -5.24680595008177   -3.22062862507532   -1.17017453696671
H          -5.56972853626982  -12.36299925189971   -4.24983723580528
H          -5.21903872951128  -14.03813351591895   -3.73836485608767
H          -4.32136976864779  -12.67644620401838   -3.01644982817004
H          -7.98359640868083  -14.23783926333466   -3.33832670027120
H          -8.65107095547011  -15.70289522738221   -2.56996135073278
H          -7.80640903739077  -15.82631489463768   -4.13522488908971
H          -7.25354774777649  -25.25216554456110   -2.60913469676549
H          -6.86762918536651  -27.35800025914005   -7.47040791562608
H          -3.39810247905124  -23.78652052676330   -9.93579400898303
H          -6.42426799927156  -27.71247371202783   -9.89797331356372
H          -3.80964708335777  -23.41660930660238   -7.55411834577049
