97
 SCF done       -203.178846860185          0.000482194080
C           0.31026773832753  -10.67062077329065   -8.96358436578307
C           1.66092664468484  -10.85674519771842   -9.06151291833130
F           2.18686341629215  -11.40232802674796  -10.16655210471763
C           2.51546633129853  -10.47925463702842   -8.00679675592901
F           3.83572962167074  -10.67488859256445   -8.12983171048856
C           2.00736837012616   -9.91784902060113   -6.86882708715157
C           0.62074484944402   -9.70986252257045   -6.73958498201770
C          -0.24538663089648  -10.09471854994226   -7.80373361444022
C          -1.64273954869119   -9.90153386279440   -7.69513550386462
C          -2.15707165973160   -9.33461173446141   -6.55943444848111
C          -1.28072358173588   -8.94358449003739   -5.50847389582707
C           0.06982608465591   -9.12302244849584   -5.57835045655994
C          -2.07349796084836   -8.35120197761470   -4.41861642560456
O          -1.64313403496997   -7.87099758598153   -3.38659373493491
C          -3.47514788677983   -8.42337800077606   -4.84543450212636
C          -3.52972240729739   -9.01924500689378   -6.16257749990968
C          -4.64724967254055   -9.26379172539819   -6.92108928335092
C          -5.97514316164559   -8.97373593783729   -6.54564975940737
N          -7.08254860533513   -8.77113989554934   -6.31639404281500
C          -4.61684708035036   -9.84921757951045   -8.20383474847860
N          -4.66296732157733  -10.31738555094715   -9.25120017382258
C          -4.53830700576416   -7.96114754313807   -4.10673507889745
C          -4.55277442083569   -7.39934608526530   -2.82625958846451
C          -5.73533099529250   -6.95278834752661   -2.22197950952697
S          -7.37449389572533   -6.92024626078545   -2.75719127330069
C          -7.86942597503430   -6.18473835980568   -1.24236612295582
C          -9.30205201944882   -5.86246191566795   -1.03136474492036
C          -6.83161865148215   -5.98125086719876   -0.39118490179373
C          -5.59377175451736   -6.41476778783318   -0.93139947935158
C          -4.25798793355581   -6.46662919635790   -0.50654328794527
S          -3.20715606906275   -7.14955780426349   -1.72606917601609
C          -3.70779869385557   -6.02116084757281    0.69672023101078
C          -2.37799312373487   -6.21861150959656    1.10990127801363
C          -2.08351164508432   -5.56855453975462    2.34838359153896
N          -0.87510065289921   -5.62048058173989    2.89765995757144
C           0.03779527466990   -6.33188981393744    2.26870699215628
C           1.38904315860658   -6.37677141282912    2.87830232882428
O           1.70311599566676   -5.67689942679650    3.82078327475544
C           2.32010156277712   -7.32149901277534    2.24646580729584
C           2.02574919642089   -8.01206313818766    1.14001037220656
C           0.73894081317420   -7.91917211514213    0.42315831291486
O           0.52713940777388   -8.53838455558050   -0.59585491453202
C          -0.27075844272663   -7.03339088600341    1.06045727196751
N          -1.45825609385678   -6.95853290562219    0.49348156706575
C          -3.18057059772056   -4.90248720465246    2.91478815040093
S          -4.57165874454849   -5.08359052320224    1.89432175426744
C          -3.09985853888467   -4.23601007663338    4.13956063615492
C          -4.05937498111861   -3.63603320459538    4.94187307112279
S          -5.76212281020516   -3.40197694937524    4.78316352533211
C          -5.81081634938757   -2.60751999926725    6.35256524277612
C          -7.11068585003037   -2.11001277060723    6.86450416650434
C          -4.59364715430041   -2.53723819248423    6.94514061441537
C          -3.56311419307019   -3.11601925603023    6.16008264367869
C          -2.18949445162978   -3.32763576431283    6.31204560164740
S          -1.53547786001983   -4.13710930952335    4.90545944841710
C          -1.36079446152814   -2.88984197270061    7.35981620764878
C          -0.06182312401144   -3.24847129897484    7.58677829371800
C           0.84164562775722   -2.33304106995482    8.33307861912570
O           0.51761548330634   -1.41345991418416    9.04911649750156
C           2.20651790023324   -2.74403978663147    7.93696629419545
C           3.40107131750777   -2.13725995484360    8.19861537400200
C           4.58339209732813   -2.68711002880834    7.65223465910674
C           4.50446003518413   -3.85131253572809    6.83275465557671
C           5.68741878426071   -4.37857173255561    6.27738243626953
C           6.89192858499787   -3.78335539682976    6.52630254781115
C           6.96931048974715   -2.63479872808132    7.33851894937064
C           5.84032210378481   -2.09721249163181    7.89004328314248
F           8.16420446575550   -2.06970806637487    7.56506399331407
F           8.01571565903539   -4.28861908314872    5.99722069782154
C           3.25523605911017   -4.46522816321172    6.58611847225258
C           2.12936056845554   -3.92340262073291    7.14186025035270
C           0.73546147535478   -4.34484071211368    7.07706238816961
C           0.31062491662193   -5.62786923611467    6.85646470495802
C          -1.02292238315141   -6.03823507026707    7.06128283692659
N          -2.09161525971810   -6.40688308727568    7.26278333048156
C           1.15747429104456   -6.68727767997848    6.47653097776846
N           1.78941749443239   -7.59472369688680    6.16841460173891
H          -0.32929776030992  -10.96668553962010   -9.78043351639500
H           2.67350658005425   -9.63386070000511   -6.06930859777737
H          -2.26840225985601  -10.20827538725582   -8.51746592614526
H           0.70408640842719   -8.82326943196870   -4.75812057963817
H          -5.52320961208440   -8.02557135474971   -4.55546005563821
H          -9.64426635650257   -5.14179210483890   -1.77362176411045
H          -9.45075352769991   -5.44487433738198   -0.03886799386045
H          -9.91383560727254   -6.75778228338155   -1.13573971330940
H          -6.94333919345589   -5.54258705586965    0.58364126055209
H           3.27898460872558   -7.42196320995524    2.73594319342021
H           2.74117432585992   -8.69270635968532    0.69831117919903
H          -7.54538480278268   -1.39166887251027    6.16995718897722
H          -6.97454185290757   -1.63077170826223    7.83044443379598
H          -7.81688770520857   -2.93257333549460    6.97453649747644
H          -4.43051049271586   -2.09137038980290    7.90912934538997
H          -1.75327944486469   -2.10321910633369    7.99600536993667
H           3.44613404060131   -1.24726315451113    8.80775631059990
H           5.64398687888473   -5.25897280738171    5.65586143394319
H           5.91704789417916   -1.21636677095723    8.50812688087933
H           3.20279574261109   -5.32668248420095    5.94014523260219
