99
 SCF done       -217.887661595866          0.000413332786
C          -3.33592124184164    2.86771168266010    2.73758550823439
C          -3.29305681083250    3.57388061713496    3.90680570074161
F          -3.12196259889055    4.90182601810585    3.88527229495355
C          -3.42794789709056    2.91763789465480    5.14720882168721
F          -3.38315640559451    3.63615468831657    6.27664489568783
C          -3.60337449118975    1.56328267379761    5.20097632084201
C          -3.65202477372819    0.80775052961211    4.01332151614183
C          -3.51546419153319    1.46973166748545    2.75841112990934
C          -3.55800640611343    0.73231649487988    1.55316638443881
C          -3.73065681326791   -0.62648781054995    1.60138403728932
C          -3.87222655026960   -1.27608887763378    2.85769140274262
C          -3.83559417090296   -0.59225817750105    4.03862287157277
C          -4.05731509789601   -2.72461487792654    2.65012778267761
O          -4.22548347708295   -3.54891960725343    3.52233882476331
C          -4.05493857529071   -2.92195633771070    1.17915448863002
C          -3.80054709100084   -1.63607346526743    0.54950886097236
C          -3.58137951055224   -1.39977733937403   -0.78287271457705
C          -3.54602863685762   -2.37548813375226   -1.80199028158932
N          -3.47907647525130   -3.10657858131037   -2.68536835462629
C          -3.32070055867980   -0.12242844803567   -1.32414099062386
N          -3.11134285903245    0.88677117754901   -1.82917015593534
C          -4.36968969892384   -4.06079955487772    0.48805789791408
C          -4.54024811053958   -5.38781491700376    0.92923314454102
C          -4.24847866166038   -6.02192695064132    2.13203027605589
C          -4.53146599935740   -7.37914352498167    2.08850727926864
C          -5.05391664341006   -7.80050119369958    0.84404520977839
S          -5.17153387183036   -6.52649059283818   -0.27126371613445
C          -5.32008066614932   -9.19023916226476    0.91068379514220
C          -4.95958091474632   -9.64957149480998    2.19474510420673
C          -4.44690249214241   -8.53269529009092    2.97143363260803
C          -3.96917085342874   -8.57115151277693    4.24747864801974
C          -3.94421184745689   -9.76605216571262    4.99976011850871
N          -3.92148910702634  -10.73101895731013    5.61827771758916
C          -3.44347009131547   -7.43921675420825    4.90893735296154
N          -2.99315743169333   -6.54527318800093    5.46694005474859
C          -5.17342731363340  -11.01631347986355    2.35501813374036
C          -5.69265295783804  -11.58244151936717    1.20555948582290
S          -5.92520517869538  -10.43364257385771   -0.09114499260468
C          -6.03169918306823  -12.94826548028835    0.97420841995078
N          -6.53607212234798  -13.25900890994206   -0.21104898081470
N          -6.86906116903866  -14.46469340306292   -0.54422429040065
C          -6.72861209635653  -15.50436658159993    0.26531701901365
C          -6.20018736148369  -15.30743711465322    1.57323689159135
C          -5.84203768562748  -13.97275895946243    1.94521797441044
N          -5.36692180701645  -13.91063519634675    3.18577182935811
S          -5.37281492853148  -15.38782566018185    3.81848709667285
N          -5.97473223691514  -16.17658464846574    2.55424302622053
C          -7.11939060404616  -16.78224224891004   -0.23249077033207
C          -7.01409307479501  -18.00952052792784    0.39552229646708
C          -7.49280824286009  -19.03565935285872   -0.41478844633552
C          -7.96738162330675  -18.57014873899015   -1.65855257001552
S          -7.81544559201561  -16.87926123008824   -1.83321385201421
C          -8.44238109109019  -19.68356480293144   -2.39553534162629
C          -8.25365287162175  -20.85103067438651   -1.62905572420141
C          -7.65124713009229  -20.47946781629545   -0.35831316886856
C          -7.30384201770747  -21.30862586238118    0.66661657783829
C          -7.48929594770950  -22.70633232315622    0.59857720272435
N          -7.62777000264351  -23.84288360218166    0.54481434599130
C          -6.72453834558699  -20.82665158052766    1.86038524886484
N          -6.25000409512440  -20.44284210228374    2.83064105505586
C          -8.68210652190704  -22.00048760062022   -2.28317049119056
C          -9.24075948139724  -21.72257461802646   -3.52188318073829
S          -9.16920316103609  -20.00213540835266   -3.89964901381351
C          -9.73425805502279  -22.68360166838585   -4.43537625262713
C         -10.58023167792486  -22.52538326214641   -5.48855695247115
C         -10.59736393380412  -23.54883163085924   -6.57294590698621
O         -10.09795371132402  -24.64802252665589   -6.53664351870499
C         -11.29263717105381  -22.89940048335912   -7.70274572632019
C         -11.47568174142885  -23.35872046414547   -8.97525441899637
C         -12.16303090181014  -22.54755481074468   -9.90584079835231
C         -12.64143073882435  -21.26737571239326   -9.50016173756002
C         -13.32062460502685  -20.46137203208119  -10.43580341976012
C         -13.51996828084467  -20.90684974145233  -11.71231687259188
C         -13.04858516311123  -22.17397900780527  -12.11189281767268
C         -12.38397737787739  -22.97795323796488  -11.22873490601001
F         -13.25759608623213  -22.58405290399588  -13.36935671341488
F         -14.16726506367492  -20.14085790539415  -12.59905853244706
C         -12.44235320583912  -20.82038296135887   -8.17398561101962
C         -11.78487886906741  -21.62906755120681   -7.28635967105687
C         -11.48402653435286  -21.45978887807310   -5.86764241719474
C         -12.16441435025426  -20.63487895998234   -5.01085810735989
C         -12.05344873797323  -20.71547524142659   -3.60750043688489
N         -12.01519033837083  -20.78468641939178   -2.46231694948910
C         -13.11805004548320  -19.68533130187354   -5.43086490799431
N         -13.88930105400811  -18.88889573055211   -5.72691305720241
H          -3.22952004213779    3.38560863283844    1.79716248421277
H          -3.70475602531524    1.07531740721149    6.15769179367831
H          -3.45657835212736    1.26487548692146    0.62166002024275
H          -3.94320077250120   -1.11476942656597    4.97694372968544
H          -4.52604081666525   -3.94578643969567   -0.57837586872171
H          -3.85864899216743   -5.49639058659349    2.98463871330599
H          -4.97261092855649  -11.59167527411470    3.24058714648843
H          -6.60905927282419  -18.11763703808769    1.38543725221472
H          -8.63243378817339  -22.99717347682556   -1.88320260918077
H          -9.32267604793407  -23.68283241150422   -4.32232787734413
H         -11.10357149655197  -24.32875107223989   -9.26767403768356
H         -13.69169673878665  -19.49096210929612  -10.14525783479634
H         -12.02967070693710  -23.94482266132325  -11.55015747357406
H         -12.80713350992503  -19.84493311229656   -7.89382634601183
