103
 SCF done       -222.373741719519          0.000641307498
C           2.11819814697294   -2.09322983835638    7.35858645212595
C           2.81430555152406   -2.49850599302335    8.46306326674386
F           3.62819201896113   -1.64550644265799    9.09563987061163
C           2.68630673736055   -3.81583166031743    8.94895690267998
F           3.38131341060798   -4.18529965836226   10.03143837878945
C           1.86314213519716   -4.70981869380614    8.32309900367922
C           1.13418253369242   -4.32249461492087    7.18203130817403
C           1.26227706634394   -2.99096257018298    6.68962148632461
C           0.54260624690178   -2.57999295536150    5.54379913068116
C          -0.27619970082162   -3.47454644385157    4.90648806320459
C          -0.39258677120409   -4.80350583813670    5.40340668879030
C           0.28355756371100   -5.22828530048105    6.51094483883723
C          -1.30367357736709   -5.56352793226192    4.53545392422586
O          -1.65142020006565   -6.72215523886498    4.68688799698974
C          -1.69022972611499   -4.65530446274612    3.44856490760120
C          -1.11932733432664   -3.34638522504244    3.72017249991837
C          -1.35333630327883   -2.18432353473867    3.03535521414315
C          -2.22240380474405   -2.04748461250287    1.93135767975462
N          -2.92145450449763   -1.85949472401676    1.04035899189637
C          -0.77095560126571   -0.94255234670281    3.37024748817211
N          -0.32529794193225    0.09154036789164    3.59084179347205
C          -2.37419568580659   -5.01870184151565    2.31886329467431
C          -2.92439274925609   -6.26015248009709    1.95475389653875
C          -3.47273780922446   -6.47774316640268    0.68503625010737
C          -3.93851512561883   -7.76926374023005    0.52520325155807
C          -3.77404211808056   -8.54391178288610    1.69783589575969
S          -3.01658014307955   -7.69997284644743    2.96625873420293
C          -4.25950749879521   -9.84962526478619    1.42928158572445
C          -4.71712691238271   -9.90227858629310    0.10041218828335
C          -4.53405150569773   -8.59747930842485   -0.51265399318334
C          -4.83625516619578   -8.24634526797356   -1.79522705944521
C          -5.38406477634077   -9.17311831591589   -2.70794729372853
N          -5.82116099738815   -9.93728732273829   -3.44274456465088
C          -4.60441724137664   -6.94695115900914   -2.29546668612188
N          -4.41126673574687   -5.89453145874040   -2.70574512233817
C          -5.18990833389656  -11.16314351512073   -0.25913337914783
C          -5.09890245806002  -12.05817862286892    0.78975949109332
S          -4.42688951205696  -11.34338348097466    2.23827883992728
C          -5.46651788607340  -13.44439869995919    0.73609096413804
C          -5.44337590777976  -14.30507103554041    1.78631325229463
C          -5.81164923808950  -15.67659946725623    1.60721046228347
C          -5.80941287256473  -16.57458750183654    2.65952896282073
C          -6.16267846889359  -17.92319752542283    2.48731313753346
N          -6.45043070316884  -19.02514936706231    2.34059605577981
C          -5.44894255786202  -16.18118138850350    3.95877861670720
N          -5.14923362624617  -15.84500259809974    5.01545119848952
C          -6.16700569587730  -16.06122706532041    0.27504592949948
C          -6.16059886258711  -15.14113233024651   -0.72517047921695
O          -5.83726457794508  -13.83676070080231   -0.51022974118478
C          -6.45260833231349  -15.38649984786195   -2.10602193526492
C          -6.74451519717884  -16.56928237919972   -2.75646204332280
C          -6.90409976005684  -16.36852654333439   -4.12776115153493
C          -6.73972051210040  -15.02256110910640   -4.50761558045878
S          -6.38688618948741  -14.00735509869173   -3.18823461935019
C          -6.89800569811658  -14.92334659227256   -5.91368073266537
C          -7.14923604744664  -16.21340437677321   -6.42121698538542
C          -7.18021761039806  -17.15841394793717   -5.31723786704927
C          -7.44156473218860  -18.49413664705081   -5.39675008294958
C          -7.70944062202711  -19.11425832836342   -6.63606266901763
N          -7.91821317041790  -19.59966816629193   -7.65350420297174
C          -7.45575062987753  -19.32781827148304   -4.25824222349198
N          -7.45849911613551  -19.99903209017419   -3.32939909126883
C          -7.31706732999123  -16.22859877624419   -7.79910127695370
C          -7.21085646729439  -14.96010344507108   -8.35334799912165
S          -6.86387302693381  -13.74049132933134   -7.13425901454498
C          -7.28134872159638  -14.57431049037868   -9.71006152245433
C          -7.76453283838042  -15.26709957187999  -10.77797797450841
C          -7.32770562148022  -14.85167320958145  -12.14430245495181
O          -6.77699981569914  -13.81755042025987  -12.43871599719173
C          -7.65551856165662  -15.99368302276495  -13.01835120757137
C          -7.34081661789834  -16.18637347742020  -14.33284570154538
C          -7.72408869772796  -17.39289233037197  -14.96002489728805
C          -8.42199255772593  -18.38240480573490  -14.20752489934898
C          -8.78900073364646  -19.58910695511405  -14.83641224102252
C          -8.48143961082815  -19.80183666620909  -16.15097794784324
C          -7.79352027286060  -18.82149526171213  -16.89487533795280
C          -7.42230388850877  -17.64175929588181  -16.31319247859859
F          -7.50420346069532  -19.05776637174063  -18.18078755568054
F          -8.83111881666957  -20.94788032183926  -16.74744438007757
C          -8.74234898424577  -18.15094856327991  -12.85011831957230
C          -8.37196986042457  -16.96881788734618  -12.26729103945403
C          -8.58323606644127  -16.45365589080117  -10.91612037025835
C          -9.56789272924402  -16.87950070648510  -10.06370090738487
C          -9.89741131849910  -16.22831175820762   -8.85928931090720
N         -10.20353723821992  -15.71009516036434   -7.88166067748657
C         -10.42569932900860  -17.96620574654172  -10.33886119659253
N         -11.14859327866075  -18.83835054061988  -10.51895907340031
H           2.22757129864476   -1.08129105919133    7.00097618799108
H           1.77613101172848   -5.71425272123996    8.70683033058340
H           0.66534115887505   -1.56727812700068    5.19582658775956
H           0.17436878874930   -6.24169571120068    6.86608436796503
H          -2.49466828219043   -4.26289133090121    1.55173940267321
H          -3.50472946214378   -5.70790734514230   -0.06568517022591
H          -5.58037929785114  -11.43372526016008   -1.22297795867760
H          -5.14529614109471  -13.95817464378549    2.76311018288622
H          -6.43375823615837  -17.08493386781376    0.07275759600094
H          -6.82603039208221  -17.51895565539158   -2.26076586830476
H          -7.45880356219739  -17.11647204041569   -8.38717380673348
H          -6.82110652874193  -13.62265442176102   -9.95952998294591
H          -6.80393265202007  -15.43062863287177  -14.88560915709542
H          -9.31864342926884  -20.34832979253435  -14.28249588861716
H          -6.89575692525702  -16.90213220297367  -16.89577916547744
H          -9.26014466795772  -18.92041822883887  -12.30003426714488
