98
 SCF done       -209.820356296088          0.000984297005
C          -3.45194496230015    3.19455936036535    3.33174987204412
C          -4.06052117132086    4.24973430140133    2.71219913787515
F          -3.72381995036135    5.50508080793891    3.03465470358293
C          -5.04706706721751    4.03325681393096    1.72868110124005
F          -5.62662141602023    5.08707351705451    1.13917472174280
C          -5.41103510140251    2.76348808753083    1.37787861708335
C          -4.80131628153763    1.65537462415111    1.99760255809725
C          -3.80347954993516    1.87239703429162    2.99196938558636
C          -3.17330062086707    0.77600765395929    3.62382327428175
C          -3.52642020509107   -0.49998941240292    3.26872785440006
C          -4.52616342954670   -0.70464133297338    2.27969011441579
C          -5.15616603811257    0.33243237007376    1.65431095899884
C          -4.73241523258306   -2.14992436080331    2.07412786213637
O          -5.54499432917490   -2.64805715834354    1.32528920763800
C          -3.79895056214894   -2.82704141528576    3.00830112834219
C          -3.04723756964268   -1.80411041905824    3.71825716546298
C          -2.01460501711652   -1.99747037154423    4.59919273977751
C          -1.47210308681532   -3.24122266334411    4.98673122679382
N          -0.96275354042529   -4.20590187258789    5.34650491803716
C          -1.31355014504554   -0.94976174578917    5.23463763561925
N          -0.70560113158061   -0.14925690431109    5.78872733056974
C          -3.70191251974757   -4.16799132830884    3.26863514091357
C          -4.24282997666288   -5.27731327375210    2.58966503530218
C          -4.88263894932057   -5.40165265614875    1.36174077199692
C          -5.16520499918415   -6.72291055516831    1.04985427948877
C          -4.75045972196711   -7.63370544782342    2.04845335706760
S          -3.99928464121216   -6.85534285079008    3.35777146734623
C          -5.08693388283274   -8.94395513510714    1.62641957249637
C          -5.70300037918527   -8.86481977906948    0.36341492227122
C          -5.77321383446079   -7.46914198388533   -0.04019652323704
C          -6.28697371793602   -6.97537521149514   -1.20160801105925
C          -6.86156504030130   -7.81345510033744   -2.18256781777852
N          -7.33561345103426   -8.48444703057819   -2.98185771470827
C          -6.27379966848604   -5.60115210699462   -1.52898365706810
N          -6.26151738886643   -4.49675333045377   -1.83429754174679
C          -6.04667078948024  -10.11413175243229   -0.14794530475253
C          -5.70434031124814  -11.13578001783928    0.71700446635030
S          -4.94789982108511  -10.55381862720315    2.18298588283232
C          -5.92002528520673  -12.53217479446139    0.46496778054167
C          -5.65938136326673  -13.55233496749953    1.39484200388414
N          -5.86717543052717  -14.81879687957841    1.12175849093552
C          -6.34174028614336  -15.12848896089916   -0.09405867061248
C          -6.61044959421909  -14.10587228368061   -1.02129534564461
N          -6.40624456320943  -12.84261180714331   -0.74771194991409
C          -6.57003533041826  -16.51346374234100   -0.39201827747692
C          -6.45442063273793  -17.58128767234069    0.47629905067835
C          -6.77976543459145  -18.78948796621154   -0.14206522518853
C          -7.13154745361048  -18.62811382523750   -1.49491727720187
S          -7.07238989747633  -17.00160579788491   -1.99782373424599
C          -7.45016351341828  -19.89646460970769   -2.04083988474123
C          -7.31617665387570  -20.86214122763556   -1.02366027239130
C          -6.87344548081207  -20.20183693226899    0.19483065979160
C          -6.57751209156492  -20.80348600466700    1.38188877723162
C          -6.70431313887924  -22.19999804263149    1.54425137062595
N          -6.82097368676893  -23.33489471552547    1.65797149185994
C          -6.13296504283679  -20.08007705094600    2.50911529372558
N          -5.78019571279995  -19.49411328539355    3.42872511170403
C          -7.59872318703469  -22.14940927096775   -1.46118869998087
C          -7.93073267389492  -22.18464332595103   -2.80929718535418
S          -7.92676591325630  -20.57498475659039   -3.52379394096033
C          -8.30087517315563  -23.27514548795223   -3.62337603648736
C          -8.17557136652962  -24.61469920914269   -3.40869224820580
C          -9.01822214627702  -25.53238318309176   -4.23047611514005
O          -9.63729310913591  -25.23988637418367   -5.22637989885055
C          -8.97225001870775  -26.83068321130859   -3.53293116997838
C          -9.67103437865958  -27.97253470206233   -3.80005854923216
C          -9.49814952614916  -29.09446085172836   -2.95927639831772
C          -8.60826586360020  -29.00632054426416   -1.84910395352236
C          -8.45397003789779  -30.12444346772821   -1.00513884211723
C          -9.14577400091289  -31.27649551414143   -1.25463390162105
C         -10.02160004153482  -31.36388106966019   -2.35581158236279
C         -10.19510457494986  -30.29627090270090   -3.19120571441154
F         -10.68618333271482  -32.50558909825537   -2.57616019772730
F          -8.99811079367923  -32.33776584477792   -0.45206689638600
C          -7.88888472057118  -27.81371757674799   -1.60457513292459
C          -8.06108472842033  -26.74438736928053   -2.44187866059026
C          -7.44072738163250  -25.42021277508896   -2.45717641600186
C          -6.23813299999243  -25.11676913586187   -1.87372726408960
C          -5.53783927579609  -23.91753794677660   -2.10512510732537
N          -4.93343867660162  -22.95751271344576   -2.28206401068602
C          -5.51702825034117  -26.01215818296308   -1.05497439414248
N          -4.88968064327816  -26.70910747677657   -0.39435830718332
H          -2.69794912034860    3.37842937356767    4.08114271631684
H          -6.16713829222800    2.61363909254341    0.62320707828295
H          -2.42663676115800    0.97714796153348    4.37445700613431
H          -5.90998216791060    0.14277230103710    0.90542413401793
H          -3.10631318628558   -4.44724039650007    4.12986318783641
H          -5.12647948614241   -4.55461267079395    0.74690630661662
H          -6.51910852192958  -10.30838777780561   -1.09294373713020
H          -5.27611275328263  -13.33202920253483    2.38281615118345
H          -7.00373850914175  -14.32429505749152   -2.00580123875114
H          -6.15291994271804  -17.45237562025047    1.49960163403629
H          -7.61524326602215  -23.01866372503060   -0.83002815007229
H          -8.82797631421826  -23.02009400404365   -4.53876889503067
H         -10.34836374911185  -28.01810699396342   -4.63916888830357
H          -7.78483733940025  -30.07617089089663   -0.16033405493483
H         -10.86956398716902  -30.37825119686579   -4.02913596349020
H          -7.22884769235463  -27.77106136075311   -0.75291590377078
