115
 SCF done       -228.048700357205          0.000668708136
C          -6.64842297691814   -6.28804011552851   11.45871716702242
C          -6.08477095993083   -7.18918108231139   12.31800242239211
F          -6.03263345177616   -6.92635895448747   13.63007086037629
C          -5.55249989625872   -8.40267520099214   11.83776084001557
F          -5.00545412837139   -9.26648993010860   12.70297524423478
C          -5.59196765471835   -8.69871342186379   10.50392388243467
C          -6.16690249136885   -7.79074746955713    9.59385288330017
C          -6.70471434055809   -6.56295201953538   10.07757392970498
C          -7.28639875175773   -5.63511711056925    9.18273627869480
C          -7.33043540661757   -5.92622444962153    7.84463696750109
C          -6.79221646963872   -7.15600917701699    7.37307125086998
C          -6.22316905809324   -8.07112492403349    8.21061763897762
C          -6.96669483978621   -7.23054005299651    5.91279416084382
O          -6.62266631111509   -8.15102191394993    5.19324719205871
C          -7.62369356544020   -5.97953577308549    5.51333754514643
C          -7.85805223405704   -5.18084974229806    6.70293891875271
C          -8.47090430695061   -3.95702075886469    6.77765241886502
C          -9.00121764448430   -3.22982437182474    5.69137532690141
N          -9.45990825390108   -2.57677071085792    4.86522939640967
C          -8.66503245100526   -3.24350579513249    7.97979946473049
N          -8.85648330346828   -2.61313099483521    8.91963331284019
C          -7.93344705995659   -5.61997627626455    4.22727216728542
C          -7.76352156355307   -6.32333502724052    3.02317835322345
C          -8.10971720064232   -5.77923379561751    1.78714695784728
C          -7.88337627001562   -6.61879866844214    0.70129401416571
C          -8.08776636543642   -6.23590072261609   -0.69796667982082
C          -7.11149526822300   -6.54041613128799   -1.64123533850062
C          -7.33480077711512   -6.24479477753015   -2.97990327369347
C          -8.51483456894304   -5.61322338565439   -3.35612834732179
C          -9.47236475273798   -5.27152391148895   -2.40742884777336
C          -9.25698030893124   -5.58496682430210   -1.06916933819857
O         -10.58240250855893   -4.65381651506816   -2.88864231172120
C         -11.59334067429014   -4.28039637503756   -1.98230325888037
O          -6.47661509669702   -6.54908740384424   -3.99221561498734
C          -5.29676303512439   -7.25065983429622   -3.68600687307972
C          -7.37122791161978   -7.85020437027836    1.11250142730659
S          -7.13553885413765   -7.93751266006627    2.82027788814231
C          -7.04877878429041   -8.99246402574509    0.29698611209141
C          -5.97024057579175   -9.80652698978535    0.59038301680874
C          -5.61841429669560  -10.88090441561127   -0.22324011934688
F          -4.52899861355958  -11.57869775582190    0.15679322016686
C          -6.28719800831776  -11.25470134025282   -1.38407739304194
C          -7.42711150914232  -10.45550979465579   -1.68421560825808
C          -7.81566178032122   -9.35588625260718   -0.84038899707895
N          -8.94057143525529   -8.78030277308202   -1.26001478365863
S          -9.43549562872975   -9.50462152124041   -2.59769282539426
N          -8.26828551335600  -10.60427486602328   -2.70711345409428
C          -5.89673465863249  -12.36557376933188   -2.20267440267717
C          -6.53439683403714  -12.83999954607092   -3.32962112974472
C          -5.92286144259425  -13.96374903787747   -3.89635353766650
C          -6.43848376654853  -14.69720252668389   -5.04547957383436
C          -6.98674255474336  -14.01870688292203   -6.12229074587238
C          -7.45742115688152  -14.72805908588677   -7.22830729793150
C          -7.38379700026806  -16.11260372426144   -7.23843766786907
C          -6.84998407734633  -16.79765466405859   -6.14430649360615
C          -6.37743229444751  -16.09311444928804   -5.04810275837332
O          -6.83853473441106  -18.15077327139667   -6.25579894429747
C          -6.28026143720260  -18.90519444649624   -5.20503257836878
O          -7.96133263415829  -13.97505194013648   -8.23980884634561
C          -8.43998440156807  -14.62885976515853   -9.39142150352534
C          -4.78561298344492  -14.36330872017757   -3.19130568366012
S          -4.50108135997833  -13.32838835757766   -1.82494137014482
C          -3.86536211918995  -15.36387282742163   -3.57966836974404
C          -2.94809634042743  -16.01244836243182   -2.80846013446893
C          -1.76142137276811  -16.65252334416971   -3.42945024728990
O          -1.60146428118587  -16.90896693404802   -4.60110026119479
C          -0.81076740577149  -16.85832523424746   -2.31447081181235
C           0.48155245407560  -17.29506069995740   -2.35541124891175
C           1.21568033090159  -17.38232353287721   -1.15078572286221
C           0.59508404333231  -17.01028605458371    0.07728812163014
C           1.33737800881208  -17.09135374124924    1.27250296659320
C           2.63308328912755  -17.52494258431592    1.25080108194929
C           3.24494589936007  -17.89524107997355    0.03659727807623
C           2.55240260289352  -17.82601891082169   -1.13958333689503
F           4.51737526437054  -18.31649632402020    0.04473333889014
F           3.33678753628575  -17.60204008389637    2.38845206517445
C          -0.74878658925956  -16.57181951886004    0.09109010004670
C          -1.44116123738412  -16.50292460565162   -1.08719924331366
C          -2.82312510267913  -16.13159485442429   -1.37210781926622
C          -3.86162772740723  -16.17343293450613   -0.47900162815092
C          -5.20884611078855  -16.12616223114804   -0.89172770257224
N          -6.30732443817271  -16.16059895147490   -1.22378822743066
C          -3.69965932201762  -16.38391490140652    0.90397711324816
N          -3.60959908894610  -16.54507667575092    2.03677934167708
H          -7.05115718350320   -5.36404528519853   11.84327536849243
H          -5.18050245412116   -9.63166534255173   10.15178739539877
H          -7.68195423886318   -4.71605208989492    9.58320570119308
H          -5.82318960383874   -8.99557278237921    7.82275945052265
H          -8.38107566947668   -4.64375060116241    4.08496979689902
H          -8.49180035422830   -4.77765891448724    1.69264576447200
H          -6.19918222820938   -7.01430056917838   -1.31587604353824
H          -8.68904998904745   -5.38646993852179   -4.39435630381550
H          -9.99516573143766   -5.36916074454195   -0.31492830277523
H         -12.36634544201356   -3.80591464568174   -2.58456321190465
H         -11.22453275741622   -3.56519217454246   -1.24050673491731
H         -12.01680899030092   -5.15073314174463   -1.47107640125180
H          -4.79549044465160   -7.41244591130023   -4.63878596952179
H          -5.51186959152793   -8.22047601923991   -3.22262741011782
H          -4.64097318582779   -6.67225766276846   -3.02750474985726
H          -5.35619062277792   -9.60397301388086    1.45446265702650
H          -7.43429663940915  -12.39200973717890   -3.70720757490249
H          -7.03397841005995  -12.94242515566965   -6.13856761240354
H          -7.73600776706799  -16.70361268729133   -8.06703350485408
H          -6.01013735372345  -16.59942200471652   -4.17097700315952
H          -6.36771012374817  -19.94586589213661   -5.51256630362264
H          -6.82640423299344  -18.75679887963258   -4.26838065375400
H          -5.22413109362664  -18.65965202896228   -5.05392504698110
H          -7.64908431600013  -15.20232829172453   -9.88455591372366
H          -8.78110147670067  -13.83829044948655  -10.05778082300209
H          -9.27826885352786  -15.29212390979460   -9.15706645920022
H          -3.81966088008190  -15.57458054096324   -4.64451176611814
H           0.93980186419871  -17.56924820394269   -3.29344860639875
H           0.88240012146563  -16.81487592787186    2.21077406015723
H           3.03559734941566  -18.11266691207374   -2.06052597432192
H          -1.19672980025840  -16.28936558246300    1.03067086257183
