105
 SCF done       -235.963555402086          0.000693140047
C          -1.04666751872394    2.72647919579964    0.83096735703913
C          -0.95701927955221    3.63738277332747   -0.18386260186981
F          -0.60891340380371    4.90384899937279    0.07714157749751
C          -1.22877518127638    3.25871385817547   -1.51423912494335
F          -1.13343520994317    4.17330379283704   -2.48815546491556
C          -1.58707155257645    1.97363295513174   -1.81128390400814
C          -1.68913840915393    1.01198349769895   -0.78733354202181
C          -1.41285339843709    1.39299720302117    0.55805397077138
C          -1.50368154771245    0.44415673869263    1.60198113313905
C          -1.85985842196229   -0.84612379882133    1.30867529725672
C          -2.14338455665437   -1.21405480067753   -0.03493186218349
C          -2.06302007189662   -0.32152268951793   -1.06469923853968
C          -2.52001140143068   -2.63961657259381   -0.09088824102754
O          -2.83937470849138   -3.25117028376245   -1.08713060279397
C          -2.48903819524824   -3.11565776864890    1.31441897092422
C          -2.02095289297174   -2.02556069017828    2.15287330953878
C          -1.69198614239160   -2.09590092725483    3.48196672225257
C          -1.73825948370205   -3.25930280732541    4.27938411581786
N          -1.72643221897230   -4.16433114839022    4.98636231937351
C          -1.21267866498144   -1.00178054540915    4.23339841185585
N          -0.82460291437997   -0.15189539494146    4.90002175526964
C          -2.95918700243225   -4.30659775076258    1.80038386888100
C          -3.32778884410831   -5.48651418315677    1.12692311547916
C          -3.11397539823768   -5.92413391521734   -0.17686384448427
C          -3.59186046511645   -7.20888919939198   -0.38100019673313
C          -4.19232319629572   -7.77191669297055    0.77241108505163
S          -4.13747332796215   -6.72059084157398    2.10521971740948
C          -4.65462150738707   -9.06865162782432    0.45940817983513
C          -4.33974481375893   -9.33598595734533   -0.89169331725425
C          -3.65908460678402   -8.18214037968639   -1.45899142504890
C          -3.17259739003804   -8.05847317446729   -2.72630670653128
C          -3.31165028632301   -9.08837271491308   -3.68232381650905
N          -3.42357869149026   -9.91863844274834   -4.46494818600728
C          -2.47913634228523   -6.91329105743234   -3.17622423002220
N          -1.89487311762957   -6.00651352467139   -3.56316101168343
C          -4.73927358984608  -10.60081077244854   -1.29429276418237
C          -5.36313602548150  -11.30287610741785   -0.26715481152633
S          -5.45695472719802  -10.37483430608449    1.21796157975504
C          -5.87976904097977  -12.62365975936804   -0.33876396780940
C          -6.53918224627473  -13.22311626171455    0.75725797910784
C          -7.06713527911797  -14.55380961891067    0.70514399203928
N          -7.69432278828356  -15.05692574194229    1.78679445314863
C          -7.80831044365286  -14.33785478256379    2.85616614573023
C          -7.28035673822492  -13.02019535946643    2.90964345947020
N          -6.67538816860445  -12.50423035652840    1.88913549273300
F          -7.39545780375367  -12.28029419625780    4.00540236697980
F          -8.43635961935656  -14.86689101196116    3.89888544086069
C          -6.95595689297789  -15.37136989790405   -0.44134203895381
C          -6.29414301737912  -14.77972157726199   -1.54427629377033
C          -5.77125527166334  -13.43275942801180   -1.49546265013310
N          -5.19417520995905  -13.09384215795906   -2.64953266893635
S          -5.29256645695338  -14.31501362753181   -3.67975592237104
N          -6.06939004064275  -15.34487383221826   -2.73167512218251
C          -7.47557116323915  -16.69249483099042   -0.46812804340879
C          -7.39198339251360  -17.59311637074546   -1.52603366652649
C          -8.00263800441042  -18.80121068774948   -1.22895101155016
C          -8.56353725055912  -18.82656191078152    0.06745242396506
S          -8.32383293416792  -17.36035621372969    0.91421231150692
C          -9.15458842570242  -20.09378858253875    0.26547632892395
C          -8.97370201864745  -20.87259247607514   -0.90027196361159
C          -8.24266968058063  -20.08145980780206   -1.87582114908057
C          -7.86704871321659  -20.45374302575038   -3.13251427397738
C          -8.17004342585724  -21.72732848779780   -3.66017654433929
N          -8.42152739937418  -22.75781925203804   -4.09480623402117
C          -7.15866522498857  -19.58711568638139   -3.99256226209113
N          -6.58648782894833  -18.88779776375569   -4.69804037558524
C          -9.54125552690584  -22.13445650941435   -0.79738078383914
C         -10.12897320081265  -22.35129268356515    0.44380062493778
S         -10.00786645029839  -20.92805971903309    1.47789589022825
C         -10.84263382938999  -23.51385222384706    0.80541052627491
C         -11.29286610535982  -23.93343659957656    2.02031972044806
C         -12.42218043750185  -24.90557706923670    2.07274516240890
O         -12.84504077661480  -25.57238120491484    1.15847175690077
C         -12.94030606852413  -24.81658109029883    3.45301118582897
C         -14.04973823758650  -25.40147615685926    3.99178444463298
C         -14.37511219991874  -25.14199814219248    5.34208911391763
C         -13.54375721168170  -24.27409470738264    6.10878276021621
C         -13.88247245650216  -24.01072861640604    7.45121506064392
C         -14.99125679366135  -24.58451467716689    8.00736053429327
C         -15.81050740716616  -25.44552874277191    7.24934657492672
C         -15.50973249798736  -25.71957659967301    5.94458003100947
F         -16.89110914111330  -25.99316703034900    7.82024286495150
F         -15.31159901414573  -24.33240352610565    9.28262656036299
C         -12.39407862505062  -23.69170702208141    5.52714172484858
C         -12.09410628477283  -23.96509598184080    4.21997139949047
C         -10.97567857930435  -23.54850923841453    3.37781529741666
C          -9.74819655498117  -23.14741302411938    3.83687533712965
C          -8.61289671363727  -23.05091747246564    3.00669536073376
N          -7.66592212352323  -23.00442153165849    2.35983408041737
C          -9.46724153032370  -22.89327144089974    5.19446157863906
N          -9.20137777978417  -22.66237868662437    6.28650786105560
H          -0.83332134641657    3.03263203823314    1.84322086217163
H          -1.79178285229922    1.69919749547723   -2.83423629033321
H          -1.29339647392113    0.76587309396570    2.60897679106039
H          -2.28024120756840   -0.63110823701290   -2.07563238627096
H          -3.08463456700850   -4.37098807945130    2.87524121348243
H          -2.63683469528930   -5.31457360475126   -0.92215265542281
H          -4.60157587873998  -11.02612340117294   -2.27109558994400
H          -6.90147083162337  -17.34258055873356   -2.44841378463699
H          -9.52225261067540  -22.88768460543554   -1.56437714384115
H         -11.16019134920895  -24.13014599731804   -0.03155213030801
H         -14.67163830376892  -26.05221393652048    3.39620838835011
H         -13.26419508835327  -23.35767962904637    8.04709187608725
H         -16.14678911073666  -26.38023717355135    5.37765726711522
H         -11.78442114926849  -23.03379593959729    6.12604511207757
