112
 SCF done       -243.909875942212          0.000720224013
C          -9.07669396285538    3.14823492814639   -0.99692987962185
C         -10.16909530509546    3.51390547251055   -1.73174563945508
F         -10.54204632803266    4.79914791616846   -1.79056864002672
C         -10.91675402102441    2.54794319565628   -2.43530844350570
F         -11.98394465371452    2.93555678711252   -3.14703822164018
C         -10.56143925722949    1.22907461135809   -2.39385013815399
C          -9.44101455959960    0.82035918336748   -1.64438720299586
C          -8.68328348342712    1.79596085268890   -0.93365894633582
C          -7.55360714253074    1.41044853772259   -0.17722054340587
C          -7.19227089889473    0.08883894884609   -0.13137584025972
C          -7.95868796507616   -0.87694403703866   -0.83703043245716
C          -9.05327282431694   -0.53570972877083   -1.57845888184255
C          -7.38711354331068   -2.22113182168806   -0.62424915801440
O          -7.82063815497482   -3.24509327734938   -1.11069620498611
C          -6.24656094035005   -2.03225673671457    0.30692074467725
C          -6.09869923178515   -0.59923487059535    0.54596134953227
C          -5.08799545172776    0.02359755522818    1.22832957318430
C          -5.00553959510350    1.42206434389158    1.40632471220226
N          -4.87779164676481    2.54712763541267    1.59504191403132
C          -3.96885608853865   -0.59176615944274    1.83299499136015
N          -3.01423571298923   -0.97499785055008    2.34374665078186
C          -5.51236718230635   -2.96024199109541    0.98630671936137
C          -5.41570418345966   -4.38449107024377    0.91227796773219
C          -4.75014437350674   -5.03753156990450    1.98758891233823
O          -4.35932307403945   -4.26234011804810    3.02243221406470
C          -3.56968190519414   -4.82191794543800    4.04706606675291
C          -4.55646671538165   -6.40798310070385    1.92674294716073
C          -4.98727605894743   -7.15312488426355    0.83370016569456
C          -5.68985114971432   -6.52256531847814   -0.21569383491725
C          -5.86974043659412   -5.15257148083282   -0.16474622229772
O          -6.17851468531943   -7.32441041059231   -1.18748025678974
C          -6.82207631029212   -6.72407444462272   -2.29363574929672
C          -4.73205446173728   -8.57995147495263    0.80107201741907
C          -4.23995018244075   -9.34119504425370   -0.23744813734179
C          -3.72354425636397   -8.75279351985706   -1.47137699635019
O          -3.46874913974250   -7.57853270370183   -1.62596517835001
C          -3.47323461758447   -9.76391362456520   -2.52485095486211
C          -3.52837196529315  -11.15799330533333   -2.26743766355347
C          -3.21622461435415  -11.89470871464239   -3.38566520542847
S          -2.87976364938950  -10.91843870649843   -4.75965582081339
C          -3.14033549843933   -9.49583283795865   -3.82972895234892
C          -3.00229616562702   -8.15443508146237   -4.47945715053984
F          -1.96033640018006   -7.45814482114999   -4.01813391454664
F          -2.80993275548927   -8.28567787464003   -5.80495851633504
F          -4.09351376713101   -7.39544618858579   -4.33499857677284
C          -3.12792533675026  -13.38494619325546   -3.51275248934314
F          -4.29615214344387  -13.99797293409259   -3.32473081088685
F          -2.71353454487507  -13.72800404359513   -4.74617895006763
F          -2.24206969070102  -13.92090211755592   -2.66318214091068
C          -3.87196283629694  -11.74079239754114   -0.94572685620310
O          -3.92035144003749  -12.94537082506024   -0.79597417311580
C          -4.17631523671584  -10.73825036755186    0.07351620520580
C          -4.57949553475408  -11.00504179051490    1.37693904464365
S          -5.11350030989583   -9.56101535888565    2.17046224858936
C          -4.57808133323827  -12.24965885788674    2.11020955032415
C          -5.54776685141338  -12.49082744565226    3.11071956008097
O          -6.42262029766385  -11.48451340759097    3.35521908025577
C          -7.46798766607592  -11.69102584604123    4.27795863058239
C          -5.54467276168110  -13.70500247547901    3.76917781346945
C          -4.64919137509858  -14.72578129500845    3.43597878465181
C          -3.65182409557660  -14.46394964530592    2.46866733296046
C          -3.60866154066259  -13.21758507928443    1.86755416707923
O          -2.76037184432277  -15.44763128397146    2.20743106939129
C          -1.81497635893955  -15.25296141758027    1.17444924351020
C          -4.74041116757069  -15.96685280733836    4.15928023496942
C          -4.43793426114792  -17.23021757378390    3.77888056227185
C          -4.24809734334492  -18.28073876489533    4.82065610470778
O          -4.57345465592415  -18.21628896583459    5.98274580782859
C          -3.52842182965098  -19.37382087854419    4.13599989610515
C          -2.99074019855685  -20.51036364656265    4.66786212983118
C          -2.30217309883947  -21.40656088517047    3.82004392586517
C          -2.18414893997201  -21.10531797317423    2.43178248528687
C          -1.48699689128315  -21.99933658447791    1.59413717988119
C          -0.93471211683590  -23.13808748396477    2.10949167837489
C          -1.05319372306919  -23.43531819778183    3.48219433018502
C          -1.72307411570009  -22.58905647426421    4.32046056884225
F          -0.49991301455895  -24.55806101645667    3.96033100716354
F          -0.27161341251278  -23.98556774858502    1.31200924325089
C          -2.76065046734109  -19.92605427626189    1.90718364033368
C          -3.42654359568184  -19.07329178646064    2.74687752047275
C          -4.12362875688671  -17.81745153350432    2.49143012595049
C          -4.57719136699213  -17.37913959799214    1.27817589924918
C          -5.47583103535087  -16.30015988264428    1.14045981952712
N          -6.25359129753303  -15.46696880339742    1.01118042359131
C          -4.26877842338400  -18.00987753563445    0.05526810573249
N          -4.01763371694385  -18.48919028229700   -0.95654713514318
H          -8.51440469162099    3.90024327415892   -0.46570749995564
H         -11.14401234097322    0.50204000076931   -2.93767496741770
H          -7.00610738038161    2.17318729131550    0.35177005581386
H          -9.61461782269889   -1.29149885608451   -2.10664181187974
H          -4.87491394178327   -2.55989691953714    1.76596850225672
H          -3.30466818059520   -3.98732579119580    4.69372628011103
H          -2.65792986973820   -5.27298550512471    3.64634959077434
H          -4.12886479774378   -5.56632280979778    4.62203552023320
H          -4.03847440363040   -6.92834423318270    2.71693581711338
H          -6.37129000420598   -4.64710646964744   -0.96934312790772
H          -7.16125961317431   -7.55115417214235   -2.91469389734411
H          -6.12264473377983   -6.10788783509038   -2.86355640440129
H          -7.67986041674198   -6.12286816994792   -1.98129742088716
H          -8.05468721259609  -10.77420477828083    4.26243734101956
H          -7.08239999991169  -11.85703908182574    5.28819881103010
H          -8.09899242805113  -12.53269730284840    3.97985696107278
H          -6.27895361382878  -13.91518892929210    4.53008808220371
H          -2.82010695716998  -12.98927701303337    1.17428398104280
H          -1.31632653278996  -16.21346011092710    1.05252004070822
H          -1.07466900455253  -14.49645777332482    1.44979320924499
H          -2.30051575632762  -14.96973630379485    0.23643628540863
H          -5.05877478618005  -15.87494431507510    5.19448454589314
H          -3.08558611064833  -20.72180451341907    5.72211090068548
H          -1.38982809137585  -21.78866674817746    0.54058065145943
H          -1.80472104656418  -22.83074119672927    5.36861402878022
H          -2.65278132041032  -19.71884551053080    0.85434801692084
