107
 SCF done       -236.543482344120          0.000900633072
C           0.17049625641638   -2.52691720080522    9.68606683149371
C           0.38613293064605   -3.04296256212058   10.93336923875835
F           1.03323087530346   -2.32210338350888   11.85708559908300
C          -0.06674450144603   -4.33665784373553   11.26302744675842
F           0.16065806060396   -4.81716686916706   12.49192881159754
C          -0.73016612007129   -5.09640431128870   10.34043348188778
C          -0.96586755622620   -4.59312613928824    9.04634567584760
C          -0.50802390339922   -3.28555758702386    8.71138426736280
C          -0.72851253258527   -2.76053545241855    7.41692080996163
C          -1.38162826793353   -3.52185595597284    6.48404619039098
C          -1.83166219476567   -4.82773098274136    6.82783224657749
C          -1.64043083700328   -5.35980493641394    8.07051253912177
C          -2.47587282127758   -5.43843836035179    5.65486818138828
O          -2.99436316545085   -6.54025311690188    5.60503240387969
C          -2.35199126250740   -4.46409911986907    4.56348624450680
C          -1.73679962306141   -3.25909311632694    5.09092825135639
C          -1.54686380099690   -2.07002451166943    4.43770018295768
C          -1.94306180824238   -1.78922593756568    3.11246037753853
N          -2.24681159006128   -1.48349236869529    2.04816190602229
C          -0.94220398351542   -0.93714949311626    5.02355099881896
N          -0.45654249336119    0.01582394584297    5.43902154268626
C          -2.67346706094068   -4.69689751651186    3.25067872673841
C          -3.23099407354982   -5.83228254394630    2.64172294010834
C          -3.37880065624619   -5.91980913053318    1.24962520339779
C          -3.92562027728870   -7.12214037623126    0.85143868865702
C          -4.22829961307376   -7.96429985959613    1.95281752011698
S          -3.80927229166986   -7.28415536446916    3.45710435550443
C          -4.76397982273578   -9.17091496743820    1.45202024598996
C          -4.79794364781391   -9.10070250411652    0.04027424081863
C          -4.27728690004305   -7.81085738413409   -0.38094482872270
C          -4.13703194343826   -7.35569080428498   -1.65852463982219
C          -4.51234152476202   -8.13104021290243   -2.77668576557727
N          -4.81322471903755   -8.75729151303744   -3.68859075064485
C          -3.59973053452087   -6.08305569612654   -1.94834145993367
N          -3.15808103563516   -5.05299095196541   -2.18869926832571
C          -5.28578130540262  -10.25886088465681   -0.54441092561018
C          -5.63328529847640  -11.21360088579580    0.40707662471510
S          -5.36023953113354  -10.65712465047936    2.05081493493443
C          -6.12728308081404  -12.51889342625798    0.15859359693219
C          -6.48262557317181  -13.37888668554665    1.22352899969062
C          -6.94284301249412  -14.72485000868352    1.00624808700637
N          -7.26327686528602  -15.48977963302027    2.05500544868354
C          -7.15964942721245  -15.01361399741901    3.27217513806214
C          -6.70023663950031  -13.67420626717491    3.48848127757925
N          -6.37943143441038  -12.91116454068003    2.47177810062470
C          -6.58796444743188  -13.15728753560455    4.80331592008454
N          -6.50692799629727  -12.76392755483406    5.87566103739124
C          -7.50594361721340  -15.83972630267651    4.37027184397978
N          -7.77625040196790  -16.48382477363794    5.27759413790343
C          -7.05753234717533  -15.28733243067617   -0.28586816072047
C          -6.72971626656679  -14.42146679368291   -1.35606173302238
C          -6.28022740922521  -13.06404747426017   -1.13855961772462
N          -6.02988538900448  -12.44477272822404   -2.29283841113388
S          -6.32529409688212  -13.43964828231980   -3.51255788224956
N          -6.78193746127484  -14.71383176514560   -2.65615224083794
C          -7.45466079149772  -16.63661432717589   -0.46096491426969
C          -7.53768595972891  -17.33225751122722   -1.66390554576597
C          -7.92372159225754  -18.64965453466614   -1.47382522655227
C          -8.15146074248668  -18.96287814433520   -0.11423100738809
S          -7.87356244608901  -17.63246895907201    0.92348804342640
C          -8.52772414790716  -20.32144604182425   -0.02873559666842
C          -8.52777159521470  -20.87392218984382   -1.33039471123422
C          -8.16021154534796  -19.83701626014274   -2.27873347924103
C          -8.07629930319165  -19.95969835581691   -3.63449988004122
C          -8.35186004289415  -21.18581878566755   -4.27635399202210
N          -8.57377694829604  -22.19233005026856   -4.77884404667958
C          -7.70484823279415  -18.88252629155883   -4.46673810388283
N          -7.39215190202450  -18.01082004478540   -5.14235665375542
C          -8.88817933056546  -22.21192509707025   -1.35081559455568
C          -9.17887333711999  -22.69692993209623   -0.08020003880588
S          -8.96282755845381  -21.46146150882878    1.15604702781177
C          -9.53845156848003  -24.00005129871976    0.31851318909881
C          -9.98056361873173  -25.04954435808238   -0.43145852024527
C          -9.85829530082885  -26.42122699926178    0.14423742129260
O          -9.61881219870353  -26.69835788985798    1.29581947156491
C         -10.03091261620360  -27.33759878519694   -0.99843953384250
C          -9.87894355030687  -28.69358066263437   -1.04071833837259
C         -10.05677111865198  -29.36533928286916   -2.27081174626851
C         -10.38387978104355  -28.61426681315643   -3.43750326086555
C         -10.54906946994273  -29.29018650681699   -4.66311779616882
C         -10.39937936672040  -30.64725816827406   -4.72686829938152
C         -10.07695768784557  -31.38894696837578   -3.57213236586959
C          -9.90932621285987  -30.76266414381955   -2.36893768016095
F          -9.93420150933156  -32.71734317099490   -3.66479100061488
F         -10.55741759025078  -31.28811543009201   -5.89155521145003
C         -10.54260957414582  -27.21122817211979   -3.36110071156036
C         -10.37642592769846  -26.58334509149462   -2.15595888190443
C         -10.49817445870328  -25.17660745414418   -1.77632940428671
C         -11.20868483905537  -24.23764016239560   -2.47872580140121
C         -11.50639622428994  -22.95179584439180   -1.98843483781918
N         -11.78245426034936  -21.90256994746958   -1.61249140069084
C         -11.80604245644172  -24.48405789798701   -3.73340571767384
N         -12.31353195962397  -24.63705097703436   -4.75072520260350
H           0.52343480049702   -1.53491104318772    9.45074124482863
H          -1.07042839237501   -6.08453380753220   10.60814270124855
H          -0.36640637323328   -1.76961191021220    7.19625829508401
H          -1.99444089609003   -6.35257047933111    8.30336829535071
H          -2.44304998966436   -3.90950003332930    2.54284694596789
H          -3.08028876995831   -5.12294553174065    0.59137160649835
H          -5.39364084723254  -10.44035260312894   -1.59796803621742
H          -7.31455749380269  -16.86726097982366   -2.60663369104312
H          -8.89480783219112  -22.82949425059293   -2.23016513544605
H          -9.37331534142028  -24.23730346854816    1.36581608607060
H          -9.62379760254257  -29.24569989375945   -0.14902814566035
H         -10.79897312430247  -28.73832700574322   -5.55579764101577
H          -9.66232761496204  -31.34413187486497   -1.49445996349541
H         -10.77833971680836  -26.66593230938073   -4.26105782641091
