101
 SCF done       -218.111837939512          0.000966169038
C          -4.18639963901939    3.16067220970798    2.60424653389573
C          -4.64175245962127    3.83533732785856    3.70201992716800
F          -4.56458219874606    5.17132761548943    3.75088558938276
C          -5.19752165151769    3.13784002233943    4.79375226218574
F          -5.63724062118792    3.82599558902281    5.85533767945951
C          -5.28968269019609    1.77435386121866    4.77255547552119
C          -4.83001216567585    1.05060590779673    3.65516121823214
C          -4.26742180879670    1.75446755987059    2.55076368344059
C          -3.79807315409464    1.04964759071579    1.41886650858164
C          -3.88916707954326   -0.31745620664833    1.39252061289570
C          -4.45790562320080   -1.00995142457225    2.49620983148651
C          -4.91843553070055   -0.35807849803192    3.60365715521124
C          -4.46084952712567   -2.46032963255431    2.22501113916919
O          -4.89634963215956   -3.31971996736711    2.95992392382842
C          -3.89641809203068   -2.61144471547608    0.86081020120905
C          -3.49267919070109   -1.29845837358514    0.38752899072892
C          -2.79016535911320   -1.01891796851518   -0.75596514925531
C          -2.31498209198924   -1.97217113950177   -1.68162673800378
N          -1.87908331891975   -2.68647514255720   -2.46823516225154
C          -2.41071135593100    0.28228905598808   -1.14904047539372
N          -2.07980953757689    1.31402119475402   -1.52769022591185
C          -3.89819581506621   -3.73843359120692    0.08405711891584
C          -4.16484847502525   -5.07846914384662    0.42586033176805
C          -4.23354945821663   -5.73571700791368    1.64903846115189
C          -4.47732645119649   -7.09344656341686    1.50071871894684
C          -4.60630042684267   -7.49018576951094    0.14992521503962
S          -4.39253722221452   -6.19563121535920   -0.92870599134038
C          -4.89012336927949   -8.87455973412355    0.11519517256858
C          -4.93358321184057   -9.36304587989417    1.43495940750873
C          -4.66047517283031   -8.26210057197079    2.34801165705595
C          -4.57398201500697   -8.32030908147163    3.70631346752231
C          -4.77834536963691   -9.51942827560992    4.42465632354025
N          -4.94490603483879  -10.48442310818668    5.01980858804373
C          -4.25043196935230   -7.19779006444919    4.50085876559927
N          -3.96950884971038   -6.30940580862937    5.16758528253460
C          -5.21687530085588  -10.72553639936586    1.49929352153651
C          -5.39527130970474  -11.27704210464185    0.24161828146520
S          -5.19998242476572  -10.09097028216724   -1.04018088406578
C          -5.71915424764136  -12.63147199468868   -0.07077348548570
C          -5.92231560824368  -13.09091312790448   -1.36352247192784
C          -6.27092300665308  -14.40777961338386   -1.66623289318102
C          -6.44218859667497  -15.39305448955768   -0.70545111220516
C          -6.22362176729303  -14.97409738055277    0.63710379607191
C          -5.87198321646404  -13.61071869819760    0.95064016793353
N          -5.75239460879849  -13.53525335344129    2.26157415904199
O          -6.00722819795313  -14.74863111522169    2.73233666445156
N          -6.29302581502051  -15.62700177819299    1.78056650394822
C          -6.83419641554778  -16.73120414898199   -1.00957123959995
C          -6.97211271344705  -17.78685279548116   -0.12460470145840
C          -7.41274961460472  -18.94497407231347   -0.76119729351144
C          -7.61568278529336  -18.76915391830666   -2.14373478630399
S          -7.24718130673982  -17.18575598042766   -2.65692044395964
C          -8.09703676102576  -19.98183694067496   -2.69350778164228
C          -8.19858914221103  -20.92839700296680   -1.65285529271524
C          -7.75138131333313  -20.31588150839998   -0.41271598694464
C          -7.64603496290726  -20.92582018377968    0.80176370015471
C          -7.99785891954483  -22.28275872727052    0.96843559159824
N          -8.29576328598126  -23.38375488181156    1.08517766887408
C          -7.18160290242461  -20.25639687862347    1.95453263467562
N          -6.80788394506057  -19.72030775403852    2.89565659349317
C          -8.67249496282941  -22.15817497958971   -2.08518771976732
C          -8.93475489040027  -22.17154677976792   -3.44901906857729
S          -8.60039335662669  -20.61124503029085   -4.19184875882167
C          -9.47958566000784  -23.20864363460862   -4.23478964358883
C          -9.58851212257522  -24.53557331770333   -3.94286651674858
C         -10.60192758087920  -25.34370013355056   -4.68134732845470
O         -11.19021172855050  -25.01745608221817   -5.68536497654488
C         -10.76606474967989  -26.57617143345870   -3.88650537595956
C         -11.67375519115529  -27.58396737479731   -4.04217103301349
C         -11.67225801294733  -28.65656777662322   -3.12236913257831
C         -10.72884761967214  -28.66151356265252   -2.05365072045100
C         -10.73980680136196  -29.72988826327816   -1.13458006577601
C         -11.64342667931343  -30.74616433392574   -1.27074544828391
C         -12.57617757020052  -30.74010704403865   -2.32772165329297
C         -12.59102021289818  -29.71823707568882   -3.23522415603800
F         -13.45227664652231  -31.74752681463422   -2.43472830330746
F         -11.65234788530937  -31.76102347670776   -0.39771350027373
C          -9.79585768904536  -27.60743769363335   -1.92196765110325
C          -9.81098162609060  -26.58330653819439   -2.83017322520412
C          -8.97443792803718  -25.39122147876217   -2.95035398658036
C          -7.72213862598562  -25.25668469923519   -2.40962415831389
C          -6.85023660937335  -24.19280223081392   -2.71101035890799
N          -6.10794383147093  -23.35081284143329   -2.95231612039776
C          -7.12738173082091  -26.21555768040471   -1.56220895375555
N          -6.59858042763187  -26.96777048134422   -0.87646727587968
H          -3.76249302246111    3.71002969963236    1.77815610207220
H          -5.71715722800506    1.25479030289326    5.61575996886222
H          -3.38345604435942    1.61230469416660    0.59832199446403
H          -5.34272849555378   -0.91136482269634    4.42759222034211
H          -3.68387243023497   -3.59874869827433   -0.96941899393945
H          -4.11651829650391   -5.22759942941161    2.58826926019785
H          -5.29966274179246  -11.31188352308470    2.39636565485124
H          -5.81438576886174  -12.39339811853867   -2.18150990467176
H          -6.41841747714696  -14.66870610723773   -2.70419681591043
H          -6.76221201891564  -17.68503816946303    0.92472914961254
H          -8.87288675031863  -22.99573086097271   -1.44271086083900
H          -9.95275969935314  -22.90772450274576   -5.16477991339506
H         -12.38585584625724  -27.56181462594320   -4.85297849792421
H         -10.03108923025976  -29.75097116199359   -0.32152418214298
H         -13.31152804241954  -29.72826330915677   -4.03803377353821
H          -9.10190203100577  -27.62760452935893   -1.09684268710576
