107
 SCF done       -220.485838635959          0.000597798051
C         -24.90896293316655    5.02643258341624   -6.32109924616745
C         -26.16735526683931    5.29977907443742   -6.77989949965872
F         -26.42188622419189    6.46390045604967   -7.39462371241754
C         -27.20896259485283    4.36660893896500   -6.61437351936985
F         -28.43402596515989    4.66025181050039   -7.07472511311223
C         -26.97822645366933    3.17171127977047   -5.99154247558053
C         -25.69286620862540    2.86117522378553   -5.50863897584458
C         -24.63835536424162    3.80384118452368   -5.67558280112864
C         -23.33772615130225    3.51230474983377   -5.20035724005000
C         -23.10068862155035    2.31579225345815   -4.57937685818335
C         -24.16068790300774    1.38045966728519   -4.41695788640632
C         -25.42456918900076    1.63257229898019   -4.86284948446815
C         -23.64622570532635    0.17780889624142   -3.72826509599194
O         -24.28591088562147   -0.81169214952724   -3.42917381005005
C         -22.21308034445389    0.43961667976977   -3.49293066352545
C         -21.88363381197777    1.74125193264228   -4.00334859709001
C         -20.65475391463402    2.36534260497757   -3.97077216218516
C         -19.46604762949564    1.83727204000277   -3.43123624509015
N         -18.44628126997776    1.49492547541809   -3.02376552945040
C         -20.41332353588998    3.65359892443247   -4.48686591513189
N         -20.14570682987236    4.69876617458363   -4.88213877228618
C         -21.34223503241957   -0.44870658275340   -2.88525703423393
C         -21.67936162813858   -1.70219134468956   -2.39874537609121
C         -20.73873974432277   -2.54570236873600   -1.82103943251342
C         -20.94468475250285   -3.83460270866632   -1.29796199936993
C         -19.80586709120306   -4.42417292665125   -0.80768241617488
C         -18.66423554580528   -3.61913563247957   -0.92814271012823
S         -19.05638518386813   -2.09394400995473   -1.66928533914599
C         -17.34253916257915   -3.89190683268345   -0.56219103197831
C         -16.80927801019857   -5.04952008896559    0.02117478093292
C         -15.45491370764265   -4.96744877692639    0.21281397450016
C         -14.87671852204411   -3.75108746252830   -0.20761286870582
S         -16.10900000213548   -2.69587517773857   -0.84388275765463
C         -13.51125475894777   -3.50784001064100   -0.13204872409611
C         -12.74058126713996   -2.41299751264428   -0.50602417896225
C         -11.31289431608756   -2.50587911223689   -0.35964518415113
C         -10.42283852276833   -1.45029061049242   -0.75897465750197
N          -9.11066532764742   -1.62059019255115   -0.63350213375701
C          -8.62516064180778   -2.73951056220214   -0.12545655295580
C          -9.50956137623853   -3.76382511648974    0.29869675433456
N         -10.81484763063427   -3.62641327758909    0.16343354919129
C          -9.01045030561508   -4.95821234729421    0.87736361706447
N          -8.59224420873209   -5.91485051074287    1.34790855528240
C          -7.22235781044415   -2.89467091687490   -0.01446549018617
N          -6.09228932497862   -3.05223871515394    0.09126956987319
C         -10.89558543592254   -0.20749228873662   -1.28366749113310
C         -12.31868365821767   -0.10733854008359   -1.39386579860163
C         -13.20820746579051   -1.17422677973631   -1.03257887552655
N         -14.47380555729432   -0.84099151887909   -1.24110890483908
S         -14.55908724449285    0.65811166896195   -1.83439441182257
N         -12.97464157282548    0.95262012214775   -1.84954377576891
C         -10.12556188684047    0.88179891715276   -1.67403294852171
C          -8.75334315363255    1.08820696243511   -1.76395205046370
C          -8.20852190729491    2.31344029902331   -2.20248067465069
C          -6.84134644717202    2.33186153402424   -2.28835459502940
C          -6.26180839798301    1.10729051574801   -1.92870615487603
S          -7.47343400241055   -0.05023138807685   -1.44249318500223
C          -4.91124557254939    0.74938745572114   -1.93528733814330
C          -3.79890242938920    1.54156299134057   -2.26821945969030
C          -2.60929741220659    0.86710781670433   -2.19571953224812
C          -2.74413709141822   -0.48177747581653   -1.81106764365281
S          -4.42104042094005   -0.86683542555884   -1.51796338562324
C          -1.72266561809627   -1.40887411793660   -1.66817881195062
C          -1.93829677074509   -2.74131356924822   -1.34405811703564
C          -0.98906023179607   -3.72624239447765   -1.15316701194594
C          -1.38246928000307   -5.14808436009956   -1.31395144646665
O          -2.50573682814149   -5.58543375844888   -1.42045125108672
C          -0.11038780276621   -5.89837842748582   -1.38684172790411
C           0.08876531719279   -7.22641846138955   -1.62555421750711
C           1.41128077955411   -7.72128265378654   -1.69290403686299
C           2.50214812843212   -6.82268786760951   -1.51427495251490
C           3.81820355225985   -7.31920784849018   -1.59384055404502
C           4.04075826716519   -8.64570993453848   -1.83755388376644
C           2.96131773377937   -9.53354260452847   -2.01207651003176
C           1.67294245241888   -9.08241971324314   -1.94072049032786
F           3.20883881648605  -10.82954952702051   -2.25148724875390
F           5.29413022467955   -9.11516647682503   -1.91410580638483
C           2.26272996959778   -5.45165836790374   -1.25873442461880
C           0.97405272486491   -4.99708935960852   -1.19027246119968
C           0.42603200869735   -3.66479872927103   -0.92398570168727
C           1.13250680171350   -2.62450940467920   -0.36235761763436
C           0.55206210540008   -1.44643875478244    0.14731680375611
N           0.13984798201879   -0.48126951024708    0.61443039540962
C           2.52136783979261   -2.65567147396505   -0.13159830852686
N           3.65322391561276   -2.61389492552797    0.05980765463717
H         -24.12243361517776    5.75242596876470   -6.45620665403742
H         -27.78654155059271    2.46727591892928   -5.87252763629778
H         -22.56281659474050    4.24748921799513   -5.34424513091964
H         -26.20981001847275    0.90453671689464   -4.72673230307986
H         -20.30623755363813   -0.14952666753239   -2.78143621788470
H         -22.70139634182215   -2.04468469542417   -2.47190475035649
H         -21.91668526691418   -4.29455625461045   -1.29699435060527
H         -19.77294414920747   -5.40680618854957   -0.37253272108323
H         -17.40749082871364   -5.90413552114467    0.28110863421415
H         -14.85762328119451   -5.75317136278267    0.64112534781295
H         -12.93036410909803   -4.32822982965664    0.27515538138349
H         -10.72356336700121    1.73132857420924   -1.98713482736538
H          -8.83867177722097    3.15049906073906   -2.44740436005415
H          -6.26735631982712    3.18384000759914   -2.60584289518323
H          -3.89287808857323    2.57494041420558   -2.54927714691293
H          -1.64825016645635    1.30160768758107   -2.40499667187236
H          -0.72097370519432   -1.05644706224153   -1.86932223294482
H          -2.96612745033701   -3.09282424041859   -1.32129039281799
H          -0.75043970040005   -7.89109930718609   -1.76303755678637
H           4.65660528057617   -6.65370609435294   -1.45933756120779
H           0.85678270276577   -9.77464548956732   -2.07653003849383
H           3.10904414712441   -4.79553077638455   -1.13332927079758
