100
 SCF done       -217.652288326412          0.000980914568
C          -4.97432624376178    1.43944853203605   -5.57337830407387
C          -5.09988161171481    1.47643023307544   -6.93398610332762
F          -5.13353521037232    2.65113857344150   -7.57533803843526
C          -5.19604474241680    0.28336621975856   -7.67821696093528
F          -5.31970710650328    0.34939055503097   -9.01038399543667
C          -5.16477050879225   -0.93081935290524   -7.05127853592739
C          -5.03771790308951   -1.00148107226476   -5.65052388089619
C          -4.94050264707148    0.20383068014586   -4.89659386036724
C          -4.81521070109302    0.15828286552671   -3.48864417779832
C          -4.79220967883264   -1.05508166645097   -2.85339977953732
C          -4.89387489458464   -2.25248333486487   -3.61563688954157
C          -5.01028237417391   -2.24197168413765   -4.97561773306421
C          -4.86457848709911   -3.40630218891242   -2.70305659583680
O          -4.91395991336079   -4.58197774149718   -3.02431829584604
C          -4.77677730695910   -2.85743840027396   -1.34653732393037
C          -4.68267375705212   -1.41175527421718   -1.43981356059086
C          -4.49738032389237   -0.52144827757021   -0.41500126164812
C          -4.34177920345368   -0.85395439882904    0.94764423084489
N          -4.19488938093049   -1.04400330380301    2.07040936484047
C          -4.41497610840738    0.87645688449059   -0.59086272562144
N          -4.34526684354416    2.01948142539367   -0.66620964507764
C          -4.84414157449342   -3.58851297119366   -0.18663494956642
C          -4.97009186374509   -4.97144846293534    0.00819414712321
C          -5.10653357662356   -5.52601742014136    1.28857719265567
C          -5.23978174430494   -6.89968252576187    1.25959334306942
C          -5.18731241205842   -7.41320450613260   -0.05968237574809
S          -4.99532283770171   -6.21046725578145   -1.24792359272921
C          -5.34754014692808   -8.81725748734476    0.01382154615998
C          -5.50376124199433   -9.19476004879722    1.36080829662294
C          -5.43529760822980   -8.00282123086880    2.18973149313256
C          -5.54071550688982   -7.93733195180514    3.54729828177886
C          -5.72985278451326   -9.08811487305595    4.34281527373378
N          -5.88417651673738  -10.01856901657650    4.99463366608945
C          -5.47134193106234   -6.71510765828249    4.25000950446671
N          -5.42037784701982   -5.72659470312584    4.82805763892228
C          -5.69474430393587  -10.56598269033135    1.52206937822201
C          -5.68031227431642  -11.23537224189216    0.31218056377657
S          -5.42217096742702  -10.15171336302207   -1.04704774307436
C          -5.87087438560786  -12.63475799477389    0.09469500083021
C          -5.76748422288872  -13.22037196880779   -1.16677949225980
N          -5.96704690019059  -14.49593889373936   -1.44433211978795
C          -6.30083100776639  -15.36091632223124   -0.49760161724902
C          -6.42420776491454  -14.91859869855626    0.84719984257140
C          -6.20022246729623  -13.53109366293175    1.14580048902860
N          -6.35524010509007  -13.27819115194179    2.44487594973014
S          -6.73674976955017  -14.63952929959704    3.20505746630746
N          -6.73153626579575  -15.62091943453387    1.93550197702150
C          -6.53413538529434  -16.70754247552211   -0.90246529796774
C          -6.97476560012037  -17.78166683129287   -0.15097119333039
C          -7.11574879582204  -18.92446299597427   -0.93458869666505
C          -6.76503768091631  -18.70712486706405   -2.28408607815074
S          -6.27693338495557  -17.10144859471978   -2.58736768408765
C          -6.94415901441183  -19.91998164204766   -2.99494169307143
C          -7.42621304230270  -20.89665396017729   -2.09881249020021
C          -7.53230068429319  -20.30730322840350   -0.77395833280651
C          -7.91095387001845  -20.94298078342575    0.37197637718092
C          -8.27332188616876  -22.30698965203107    0.36497168107621
N          -8.57172119941944  -23.41392025386104    0.33636839116305
C          -7.96801692541548  -20.28529019858292    1.61891542466052
N          -8.02168499836328  -19.75012705219130    2.63118753175273
C          -7.62784928453225  -22.13089141910682   -2.69927261231613
C          -7.28740071803340  -22.12168842222573   -4.04602359504697
S          -6.74754912449774  -20.52893207270522   -4.56973454386202
C          -7.36662695587294  -23.15858795518673   -4.99822423938828
C          -7.52827370750356  -24.49895558321131   -4.81087338285310
C          -8.00920235555281  -25.31648430500389   -5.96234478973215
O          -8.05251895116183  -24.97269120395036   -7.12027777424753
C          -8.46727715900248  -26.58796501925353   -5.37048969025772
C          -9.11402661584101  -27.63015506240580   -5.96967418884980
C          -9.50581099987125  -28.73694958969441   -5.18379209375868
C          -9.22805813503061  -28.73627739219598   -3.78563140081215
C          -9.63944831288088  -29.83527102948987   -3.00514005299812
C         -10.28932933316161  -30.88790705365282   -3.58608706665269
C         -10.55767929515773  -30.89029465654054   -4.96990978926385
C         -10.17504045310465  -29.83778793081778   -5.75321401299868
F         -11.19526677647694  -31.93594938311521   -5.51249232785351
F         -10.67939621319975  -31.93144421332583   -2.84343047487090
C          -8.54468385193529  -27.64825948039522   -3.19526193934207
C          -8.15989349036018  -26.59481136396458   -3.98004682242300
C          -7.42700099030261  -25.37093067860221   -3.66015360758606
C          -6.59279831967013  -25.22265563174540   -2.58268890381450
C          -5.71260387590839  -24.13572458169005   -2.41949873907025
N          -4.96921197945237  -23.27447039226156   -2.26531104258575
C          -6.44848896615110  -26.19082667471098   -1.56606168897216
N          -6.29456312328339  -26.94971684000008   -0.71970249409948
H          -4.90146569362812    2.36206707517219   -5.01902659504787
H          -5.23954229124160   -1.83479499734835   -7.63521011853816
H          -4.74634552391981    1.08896250063701   -2.94963982873953
H          -5.08376089838960   -3.16651654336925   -5.52783445904299
H          -4.82334899462390   -3.03310057318289    0.74340345409359
H          -5.11089890920836   -4.91898133726693    2.17679038694199
H          -5.84407995512819  -11.07767266436110    2.45527702242644
H          -5.50747177133456  -12.60875869284351   -2.02133402595873
H          -7.17647465560183  -17.70391609305170    0.90206088170047
H          -8.04694180254458  -22.98824156031133   -2.20567865306715
H          -7.36852582445514  -22.84768840632310   -6.03898649382201
H          -9.32714559537776  -27.60928935572391   -7.02753694854966
H          -9.43844763415611  -29.85122654395645   -1.94539426518881
H         -10.38892262999127  -29.85394201395223   -6.81041289999119
H          -8.35430339137976  -27.66816376067328   -2.13404321074771
