101
 SCF done       -225.822041783619          0.000424228163
C          -7.37633152476770    1.73059920445004   -4.91566918347384
C          -8.02657841805074    1.87972154263116   -6.10869316008003
F          -8.28198573040838    3.10347937767181   -6.58774917640720
C          -8.43624829450681    0.75202825174922   -6.84846455656198
F          -9.07174998715401    0.92798667238186   -8.01417819519539
C          -8.19021450266837   -0.50989181672176   -6.38436925476925
C          -7.52316814387510   -0.69595893227766   -5.15810762860970
C          -7.10749958844762    0.44315099063021   -4.40944405527757
C          -6.43586770127691    0.28159250318526   -3.17549427857909
C          -6.18944448974648   -0.98032353696369   -2.70282064905442
C          -6.61322485376312   -2.11085176682940   -3.45620101030553
C          -7.26014873954345   -1.98809489144394   -4.65195598518392
C          -6.24626451613084   -3.33662563723039   -2.73008609924252
O          -6.44942656652047   -4.48183430978039   -3.09681943823512
C          -5.60288118469202   -2.90250382905810   -1.48583608668705
C          -5.53235834420664   -1.45211955751802   -1.48506995003097
C          -4.94403473945273   -0.64720182634885   -0.54536793912595
C          -4.27306754331879   -1.08777006764969    0.61539768345365
N          -3.70610027510260   -1.36507874933722    1.57464456024116
C          -4.91395817412810    0.76194765496270   -0.62190023158067
N          -4.85680968429773    1.90825724726434   -0.62444840867140
C          -5.18919218073930   -3.73171440503546   -0.47395680118070
C          -5.23307708677874   -5.13015852566770   -0.37014305837844
C          -4.81129297313599   -5.79353138113555    0.79034522873267
C          -4.94887429335495   -7.16395851324192    0.69624084777639
C          -5.46991822713023   -7.56399717059280   -0.55896917688281
S          -5.80046940245293   -6.25938941187245   -1.60084241284975
C          -5.58617293135403   -8.97532429908544   -0.55394948290015
C          -5.14687376941847   -9.46591747958504    0.69184032214119
C          -4.72905029502023   -8.34567313264290    1.51727215483701
C          -4.24671959294307   -8.39637800336143    2.79152096751067
C          -4.08652012393371   -9.61538949290878    3.48480866670536
N          -3.95662098850249  -10.60278238761015    4.05270959030962
C          -3.88126362819103   -7.23434843986111    3.50443989357476
N          -3.58681527843346   -6.29367856397954    4.08942903935479
C          -5.24592018059625  -10.84939146944710    0.79474998397538
C          -5.75467573226766  -11.42079218713575   -0.36089660615101
S          -6.10563731903679  -10.21861659034778   -1.59467850944152
C          -6.01468211163993  -12.81143594771775   -0.57672378369916
C          -6.48102332406914  -13.32829870912523   -1.77986207391261
F          -6.68367954049970  -12.50461968385514   -2.82374057078422
C          -6.76946710856610  -14.68047001187845   -1.98617432528652
F          -7.21816632375955  -15.02022493096030   -3.20818871237898
C          -6.63358133501536  -15.65883329331262   -1.00825972538663
C          -6.13950444507214  -15.17629878235203    0.23780449327820
C          -5.83227538722758  -13.78537981193655    0.44715098731413
N          -5.38692868143502  -13.56484576872107    1.68199939417646
S          -5.35038263928325  -14.94556235657383    2.49547663871794
N          -5.90074708734434  -15.89886832347590    1.32994356793198
C          -6.97496706016606  -17.03337511368818   -1.21218031718994
C          -6.95295148493540  -18.03728655471706   -0.25674676224394
C          -7.37689816229687  -19.25735710098827   -0.77227997277439
C          -7.71568853402573  -19.18681650411222   -2.13800737991803
S          -7.51939650766297  -17.62132819922291   -2.77635323434781
C          -8.14147094149779  -20.46956970023551   -2.56341671133501
C          -8.08212344655859  -21.34719216666222   -1.46035729601534
C          -7.58774866236054  -20.61736711687030   -0.30502138177843
C          -7.35273277935782  -21.11988729994242    0.94083892569690
C          -7.59694090469909  -22.47723119676042    1.23979100832813
N          -7.80890414528313  -23.58157794157977    1.46412736493415
C          -6.86210845333868  -20.32161266763035    1.99587328336255
N          -6.47178379485140  -19.67197367388218    2.85592050383948
C          -8.47261724148187  -22.64055460778856   -1.77586520923633
C          -8.82181734845100  -22.77242497179926   -3.11376927555861
S          -8.68945902749359  -21.24175934070241   -3.97524807253035
C          -9.29796565667488  -23.90420907631710   -3.80674839831058
C          -9.26309390482186  -25.21892999706864   -3.44798682906089
C         -10.20691941299940  -26.15638853238416   -4.12282770866483
O         -10.85358075325721  -25.93259752443635   -5.11915847412387
C         -10.21710651837288  -27.36867506107332   -3.28212741782415
C         -11.00793821157401  -28.47673187949451   -3.38350545422152
C         -10.86833567346386  -29.50858099963725   -2.42857310255883
C          -9.91409003139926  -29.36660767633335   -1.37920041623526
C          -9.78957808780956  -30.39434076927090   -0.42291116443128
C         -10.57193039527284  -31.51181509726943   -0.50698005515394
C         -11.51320600849895  -31.65233447069939   -1.54682959804762
C         -11.65942045228067  -30.67242972582723   -2.48823003713868
F         -12.26719962552806  -32.75797150215534   -1.60381372210644
F         -10.45179253026498  -32.48796526955439    0.40148045252142
C          -9.10253772531883  -28.21112745148485   -1.30518088606760
C          -9.24598076962038  -27.23078722880104   -2.24983164858537
C          -8.54021956598240  -25.96471349431643   -2.44054679285036
C          -7.29410668804033  -25.68531560334069   -1.94220785341489
C          -6.53011924580252  -24.56569420443403   -2.32309307284185
N          -5.87126285829611  -23.67585102448261   -2.62679738741373
C          -6.59195917062463  -26.53812914120240   -1.06404810882378
N          -5.97930148438146  -27.19846144714332   -0.35370587719695
H          -7.06926023265106    2.60447043025189   -4.36254704822622
H          -8.51038204545633   -1.36276587343588   -6.96213692485261
H          -6.13716786949690    1.16477978702541   -2.63493534330032
H          -7.56831984698318   -2.86417149246708   -5.20204928454581
H          -4.77364709331263   -3.25842211762980    0.40757183442086
H          -4.43192088288532   -5.26356776384304    1.64625346352177
H          -4.97577205678683  -11.43775635330317    1.65163638559606
H          -6.64251889782784  -17.85612055507699    0.75540776506279
H          -8.55198717817684  -23.44417497069531   -1.06703360633411
H          -9.83606459021362  -23.70497821162568   -4.72912649594314
H         -11.73177545967775  -28.56396249458671   -4.17936253130682
H          -9.07173521009280  -30.30429305023768    0.37729890744069
H         -12.38471305432422  -30.79458967531887   -3.27736003628531
H          -8.39630732756848  -28.12381577538113   -0.49503250254562
