97
 SCF done       -207.227129212109          0.000326337718
C          -3.23240729588916    3.30876429812777    1.80273398119519
C          -2.61843179034499    4.13765757693432    0.90634339825311
F          -2.47507041093209    5.44035103475368    1.18292470598897
C          -2.12921842329383    3.63636707826629   -0.31697523827422
F          -1.53265706405083    4.47316727164798   -1.17628986639154
C          -2.26035485005899    2.31172262716330   -0.62666871113995
C          -2.88803139552192    1.43225650805271    0.27672534925272
C          -3.38375345603468    1.93736017657015    1.51380030901059
C          -4.01673152369988    1.07386732594647    2.43702859756595
C          -4.14881727852707   -0.25649654933336    2.13403208279771
C          -3.65063225265083   -0.74849633264714    0.89786611520211
C          -3.03705257835425    0.05892740908307   -0.01571669291454
C          -3.90699186652058   -2.19708855253588    0.80162836357770
O          -3.62573155567108   -2.89890243671777   -0.14645303064443
C          -4.59608133550129   -2.57028296318617    2.06008878364727
C          -4.73622393401282   -1.37159584443940    2.87276387208268
C          -5.28853125889176   -1.27032671866376    4.12405593956132
C          -5.83305562244781   -2.32096265553753    4.89264753828230
N          -6.28862632184156   -3.10826083894096    5.59474361070430
C          -5.38722364014872   -0.06203229979895    4.84760035612500
N          -5.50705424239291    0.87992502370519    5.49263973009375
C          -5.09699421977055   -3.79473921730008    2.41743897555112
C          -5.00855695526512   -5.05507993362161    1.79818962862581
C          -4.30027969696762   -5.52432799131438    0.69715793422100
C          -4.51576745769700   -6.87482842205808    0.47102186773013
C          -5.40440080132985   -7.46232408235425    1.40305223921645
S          -5.95124859972823   -6.34956811397985    2.56286166685229
C          -5.58054079348251   -8.82185380554869    1.05789648591720
C          -4.80964506241119   -9.10156686131288   -0.08502329704890
C          -4.10294138642124   -7.89167238329777   -0.48202792414913
C          -3.23051465979155   -7.75851359392367   -1.52016669757018
C          -2.92472921619410   -8.83920597841831   -2.37637512060390
N          -2.68008416479466   -9.71639027247798   -3.07254085345017
C          -2.55374924210367   -6.55389558831237   -1.81437329491276
N          -1.97512036958102   -5.59891144303645   -2.07138991566496
C          -4.93642857779545  -10.41972860506509   -0.51552741123012
C          -5.79786076802169  -11.14703369788137    0.28846404978669
S          -6.45492570092984  -10.18756636710224    1.60325123180505
C          -6.18116546463050  -12.50145769673069    0.12203548991398
C          -7.03709159202580  -13.25437769535404    0.90281738394248
C          -7.22170665233105  -14.54901328638320    0.42718163948655
C          -6.51091578465057  -14.81416228492273   -0.72760927740534
S          -5.58573293072383  -13.42733358135567   -1.22596562966775
C          -6.49341218796263  -16.00369603321072   -1.49859414423991
C          -5.77488134969582  -16.23509763712204   -2.65892951283322
C          -6.02865445746568  -17.49931499365989   -3.18492792664354
C          -6.94556367350713  -18.24090608989395   -2.41750019808614
S          -7.48737822763314  -17.37842587642020   -1.04470812216408
C          -7.15709833615418  -19.49296301955597   -3.04494434555454
C          -6.37522772685584  -19.53558104150819   -4.21879522303012
C          -5.62596542903701  -18.29733825871361   -4.33239753267321
C          -4.71475713201367  -17.98002096784725   -5.29569485097522
C          -4.41438034749511  -18.87841574111988   -6.34195927357338
N          -4.19000734131082  -19.62063560030072   -7.18661040208618
C          -4.02427931056857  -16.74949752391409   -5.30324582973942
N          -3.47094233239931  -15.74579232147646   -5.30721875938936
C          -6.50998059654674  -20.72540940527662   -4.91752387664535
C          -7.37915388574143  -21.60911851649123   -4.29150995829988
S          -8.05795255818751  -20.91855126507577   -2.81944838575549
C          -7.79736803489961  -22.88586989334238   -4.71843717282400
C          -7.24358731858757  -23.68653735537244   -5.67347527910945
C          -8.08946704144966  -24.74752399750750   -6.29148570787444
O          -9.15095669567715  -25.15384026550688   -5.88018868311875
C          -7.38327381269105  -25.13140695493558   -7.52983269637247
C          -7.79827726917181  -25.95476185047574   -8.53653655802180
C          -6.96705861763294  -26.13037418145214   -9.66579527955413
C          -5.72038170959451  -25.44230303461839   -9.73210635231077
C          -4.90545965480810  -25.60784364686342  -10.86991514015750
C          -5.30710679338278  -26.42115848515338  -11.89216593529749
C          -6.53817528003550  -27.10432262092402  -11.82392101711849
C          -7.35149550059953  -26.96336090205889  -10.73459251440465
F          -6.90688298096545  -27.89438727559152  -12.84098443936311
F          -4.53253771657150  -26.57696231328615  -12.97319592839863
C          -5.31081403884746  -24.60634064869265   -8.66800659258302
C          -6.12803715908352  -24.46088297353658   -7.57975095104210
C          -5.96465470363274  -23.68779887222005   -6.35058996399661
C          -4.75927203703800  -23.28265073428955   -5.83894094318684
C          -4.60051404227741  -22.72876311094659   -4.55406449919657
N          -4.43178712563582  -22.28836427207336   -3.50719242629506
C          -3.52743751079385  -23.45893210571720   -6.50426019595560
N          -2.50107420796409  -23.58630788484042   -7.00057036544598
H          -3.60047865896159    3.70928000596798    2.73441866014399
H          -1.88068853004566    1.94230447509811   -1.56638712295107
H          -4.38106899142084    1.49165747623896    3.36111948197026
H          -2.66982379492891   -0.34816706569429   -0.94548560232381
H          -5.67242109960595   -3.82048996457619    3.33524484526509
H          -3.67573074976763   -4.88497074607654    0.09932909817939
H          -4.44167639035201  -10.84756819787111   -1.36885967658546
H          -7.51022917119146  -12.86335845922735    1.78610317960827
H          -7.85493360797561  -15.27986518619077    0.89808879766142
H          -5.11094459523409  -15.50512635377253   -3.08630290708488
H          -6.04564984248775  -20.93206860740011   -5.86403300963160
H          -8.72673610067104  -23.25538457185773   -4.29593561351389
H          -8.74979229961712  -26.46064877831886   -8.47599311039021
H          -3.95889312758058  -25.09461909587417  -10.93618941201515
H          -8.29104905335288  -27.49219191804249  -10.69849412270170
H          -4.36857165103415  -24.08781557725958   -8.74669486567515
