100
 SCF done       -217.505227894935          0.000278066847
C          -1.20112645795069   -1.17313483200814    9.76181587007510
C          -0.86940356278487   -1.63517411016241   11.00477606930786
F          -0.41613499994576   -0.78962330586211   11.93812305527078
C          -0.99903071444184   -3.00299030391513   11.32027707222214
F          -0.66635594667804   -3.42725611193987   12.54583541011531
C          -1.45876122679964   -3.89025020361127   10.38761605012560
C          -1.80809993818162   -3.44465729848168    9.09812306686400
C          -1.67816788422144   -2.06201084477191    8.77772594366007
C          -2.02287114498499   -1.59092463302820    7.48969082549892
C          -2.48186300108784   -2.47534688220455    6.54952035602184
C          -2.60361794634764   -3.85460789361922    6.87890162974474
C          -2.28203353676458   -4.33974623409731    8.11381251610168
C          -3.09953943795096   -4.58682730738749    5.70401012989902
O          -3.33381292093474   -5.78195067427955    5.64221657075596
C          -3.24302306792959   -3.59736834137732    4.63053074408759
C          -2.90562544672412   -2.28851812838045    5.16313002252060
C          -2.99114064565701   -1.08212679593582    4.52025735069971
C          -3.44243088864161   -0.88368508060317    3.19777145041089
N          -3.80549023890744   -0.63956946321467    2.13618558862611
C          -2.65325538820765    0.15321433639516    5.11415200523308
N          -2.39353651946265    1.18745764893225    5.53829213860899
C          -3.57890472125385   -3.87990317525102    3.33152532025104
C          -3.90561625894997   -5.10306110917940    2.72421324761706
C          -4.15945554030642   -5.19572839988772    1.34961209077932
C          -4.45669883563319   -6.48511456262089    0.95245822300689
C          -4.44669635197951   -7.39255343521276    2.03800518579664
S          -4.05404541588194   -6.66694140842805    3.52572751328805
C          -4.75044561497068   -8.68105852571764    1.52953305503240
C          -4.94823518006901   -8.59316879124063    0.14095968942424
C          -4.77657603551863   -7.20922190955005   -0.26926889335684
C          -4.89318036765649   -6.70396653315378   -1.53006077463037
C          -5.21987366100729   -7.52217946057475   -2.63250705660232
N          -5.49147574401454   -8.19116349734835   -3.52307098389771
C          -4.69897090109986   -5.33526291276568   -1.81524367620490
N          -4.53975138974833   -4.22556719396386   -2.05334897072572
C          -5.23852971166160   -9.82694017055063   -0.44280268863748
C          -5.27789350410559  -10.84287930494631    0.49281014534756
S          -4.93580855073933  -10.27168595642446    2.11927805781264
C          -5.49916253883010  -12.22813926360788    0.21950550796360
C          -5.77082421776277  -13.26172374950796    1.09006296494914
C          -5.92274782102939  -13.09187296040485    2.56503500906247
O          -5.17764068542683  -13.57856685148808    3.36333811565840
O          -6.97680438195532  -12.34742157757404    2.95013072840624
C          -5.81766188877230  -14.53320805556595    0.44543263534032
C          -5.60047089445013  -14.42282904983098   -0.90580078544228
S          -5.32075501545973  -12.81774266122238   -1.41300528117333
C          -6.09043629591345  -15.78950662588538    1.09990816112816
C          -5.67859743910125  -17.03491826488607    0.67926099801294
C          -6.14383026861467  -18.04984261869854    1.52105854456000
C          -6.92418497811599  -17.55972403985520    2.57997606976748
S          -7.07184069931106  -15.86262373444180    2.54687251487913
C          -7.34939411711855  -18.65490595460253    3.37790556764947
C          -6.83256410306466  -19.83814811315838    2.81450759615802
C          -6.05105700244596  -19.49518722930857    1.63703407082651
C          -5.36125802102414  -20.35609815423508    0.83500095281429
C          -5.34410796921745  -21.74372458512460    1.09010311681025
N          -5.34682811741367  -22.86951185343541    1.30769686975212
C          -4.63812605992794  -19.91213810029242   -0.29176281894408
N          -4.06570100832839  -19.54476758808439   -1.21470808829485
C          -7.17548089998954  -20.97486368486933    3.53380212354569
C          -7.95020535530820  -20.67732910403233    4.64701836513845
S          -8.27228416526254  -18.95014470031488    4.77268323714200
C          -8.52362473898456  -21.54802497991876    5.59667811796246
C          -8.21945726309129  -22.84674102325770    5.87813172610495
C          -9.23692434632153  -23.66757858979335    6.59534886039169
O         -10.23174372811117  -23.25897799916066    7.14761722409422
C          -8.79529553514812  -25.06572337257212    6.43121132663005
C          -9.43405090608067  -26.21590078434220    6.79540195009264
C          -8.82828223961281  -27.45865196970360    6.50430871548371
C          -7.57218538122805  -27.48397751797724    5.83098705870346
C          -6.97763700546811  -28.72739457631274    5.53639352135343
C          -7.59867391297291  -29.89028276756160    5.89664132752535
C          -8.84026284992444  -29.86395689624130    6.56353198815328
C          -9.44345782050269  -28.67434406043705    6.86155732152184
F          -9.42686477453665  -31.01945908933718    6.90311601967814
F          -7.03162767702074  -31.07096664452596    5.61828076557776
C          -6.93191699162376  -26.27591111523478    5.47093389087029
C          -7.53110844073950  -25.08343001239855    5.77624684533580
C          -7.09673176528092  -23.70364976191902    5.56353380065540
C          -5.79577916719463  -23.32036295197652    5.36409447809457
C          -5.35556893496437  -21.98340695500040    5.39844975891133
N          -4.95438594015851  -20.90846059873730    5.44054661798387
C          -4.72674614493152  -24.22676395577190    5.19997756176184
N          -3.82231458037217  -24.92002045692898    5.06754377473955
H          -1.09627074811211   -0.12308465794271    9.53755687240380
H          -1.55201165050786   -4.93388350070059   10.64423560357896
H          -1.91001229171385   -0.53964275455235    7.28092252062682
H          -2.38599733430420   -5.39110953020054    8.33490199632927
H          -3.58480815924322   -3.05030656982947    2.63469697123110
H          -4.11573550752042   -4.33918932961784    0.70019169304492
H          -5.41804157648823   -9.99197226107149   -1.49000127860318
H          -7.51300001008440  -12.03374349737388    2.20969409501498
H          -5.60725743918104  -15.21252897671567   -1.62987535365678
H          -5.05239950561787  -17.18973427294372   -0.17993411971674
H          -6.92242221104796  -21.97928044946066    3.24737367133329
H          -9.37902971726098  -21.15933959760318    6.14200556951229
H         -10.38847081027821  -26.17848016385885    7.29806946355392
H          -6.02604665261025  -28.76517340395435    5.02960013383060
H         -10.39376165177474  -28.67112736727437    7.37209333839208
H          -5.98796194624659  -26.32393626049159    4.95200664586471
