99
 SCF done       -217.887456838842          0.000903412458
C          -4.21617007100593    3.18159501135853    2.58433118472235
C          -3.53479898616286    3.83579796531204    3.57187542566667
F          -3.52920954677998    5.17421326900044    3.61289289156886
C          -2.83109006658112    3.11444040348152    4.55779368407098
F          -2.17277172309252    3.78304726194228    5.51358565188929
C          -2.81822904891324    1.74793511358670    4.54193052325537
C          -3.51094581549133    1.04501767644512    3.53703142798836
C          -4.22389609538866    1.77261306246139    2.54016606576096
C          -4.93043879128577    1.08955898505636    1.52411185426211
C          -4.92684288203017   -0.28126144184738    1.50532253819882
C          -4.20920557130983   -0.99580065612981    2.50182625171805
C          -3.51576864423976   -0.36626416303511    3.49503939242356
C          -4.35067003029441   -2.44478541260673    2.27169835092567
O          -3.83279710468241   -3.31618927330368    2.93649126927558
C          -5.20771036858202   -2.58191153122063    1.06836582219490
C          -5.56143252395206   -1.24558305900265    0.61036250226171
C          -6.37114840645511   -0.91126055110207   -0.44430490443759
C          -7.04142543248098   -1.80253832447733   -1.30944227422121
N          -7.62897261576834   -2.44645320307127   -2.05788527583839
C          -6.67028873047088    0.41686865834737   -0.81943793130501
N          -6.95365874314495    1.46769142765026   -1.18406576777687
C          -5.59085747454995   -3.73014064626261    0.42831321832195
C          -5.40896836328644   -5.08918226225469    0.75125072993577
C          -4.85571406078078   -5.73887710371090    1.84949761761407
C          -4.94099302680774   -7.11841466316587    1.73832933276776
C          -5.56255385770482   -7.54543864476744    0.54146786604522
S          -6.04405711696045   -6.24377378476724   -0.43500563681004
C          -5.59580908299058   -8.96166977768604    0.52766186594301
C          -4.99428992861810   -9.42992648944834    1.71442644142600
C          -4.57250512554543   -8.29228465895335    2.51495805763072
C          -3.97946950695022   -8.33076794484371    3.74154137756452
C          -3.68185116636654   -9.55083285819473    4.38787102729601
N          -3.43461095747025  -10.53513885170661    4.92116269911802
C          -3.63139847889845   -7.17364889773893    4.47317653800572
N          -3.34273797022961   -6.25965020663814    5.10132158131048
C          -4.98417678484278  -10.81946565744292    1.79907448854920
C          -5.57559711707527  -11.39600250700310    0.69031561389958
S          -6.15062247823102  -10.22777069647670   -0.47581331640543
C          -5.77174439353764  -12.78435496256247    0.42912518155749
N          -6.41505247388767  -13.11590262775639   -0.68065164250185
N          -6.67825122892339  -14.34095151855736   -1.00629737266655
C          -6.32234680388869  -15.37978414281822   -0.26456656544514
C          -5.60316032425111  -15.16319077548730    0.94553014718994
C          -5.32015184071621  -13.80885489065867    1.31004132817746
N          -4.65457606174432  -13.72995464387012    2.45871140293178
S          -4.41081405886501  -15.21557482525601    3.02102842224598
N          -5.13527682291406  -16.02927106975211    1.83980952800969
C          -6.70524536963215  -16.67600572962862   -0.71887249556024
C          -6.43702137206316  -17.89775414699981   -0.12929171127050
C          -7.00642897367698  -18.94380784539777   -0.85032518170261
C          -7.70887604956255  -18.49921472149587   -1.98938624035402
S          -7.66096146291913  -16.80370208124504   -2.17685082740224
C          -8.27745335511603  -19.62959702573661   -2.62674130088973
C          -7.92788210027788  -20.78646492544488   -1.90209488764807
C          -7.11207777905120  -20.39124417002879   -0.76444983984507
C          -6.56312069842109  -21.20332329602244    0.18299051061236
C          -6.72138558958139  -22.60576929619113    0.15598455202453
N          -6.84112186789244  -23.74544989732739    0.13091936773908
C          -5.78817287357129  -20.69781448092916    1.24938651629673
N          -5.15613381647510  -20.29545387503089    2.11696383663346
C          -8.45713606975209  -21.94816745260092   -2.45359227575455
C          -9.24564711887680  -21.68952849057310   -3.56476581305890
S          -9.26564503203123  -19.97339980746627   -3.96686752907817
C          -9.90700680917940  -22.66088816297865   -4.35321064630035
C         -10.93914390696755  -22.50243528876432   -5.22417206559365
C         -11.17791218544498  -23.52964230478608   -6.27860944590840
O         -10.70938481803413  -24.64180733213626   -6.32365091443836
C         -12.04638577885460  -22.86353580792935   -7.27110410272348
C         -12.45770670290581  -23.31487522765193   -8.49212862529402
C         -13.26627561040834  -22.48015831491342   -9.29600675321668
C         -13.62855673872062  -21.18597116236884   -8.82029938103760
C         -14.42363274042277  -20.35399003949154   -9.63389219365324
C         -14.84386487292218  -20.78777938730828  -10.85979376167370
C         -14.48911483992828  -22.06956514967507  -11.32744053122376
C         -13.71719892758470  -22.89897527384612  -10.56303611956040
F         -14.91509645361200  -22.46817588045718  -12.53273160985578
F         -15.59886454452756  -19.99624446005963  -11.63139437712817
C         -13.19823895624496  -20.74987188910680   -7.54650133487351
C         -12.42536734912304  -21.58065322201007   -6.78096217724105
C         -11.87942563817371  -21.42144942315207   -5.43666645978099
C         -12.38760127945141  -20.59177559219757   -4.47236768704730
C         -12.02778790859294  -20.67795160289947   -3.11146461489697
N         -11.78380756878338  -20.74730375291105   -1.99193275457811
C         -13.38722259551882  -19.62855930185680   -4.71821738336534
N         -14.18783049538503  -18.82189760495018   -4.87646914160638
H          -4.75019081682446    3.74921449336696    1.83831536990881
H          -2.27546682249727    1.20971314944622    5.30310304536320
H          -5.45664428091080    1.67298056445708    0.78666672987568
H          -2.98245585324942   -0.94014094705820    4.23753396240402
H          -6.14259444681144   -3.59430071160301   -0.49427886110201
H          -4.41295096304960   -5.20508041421597    2.67163504254405
H          -4.58092551431892  -11.40429938405209    2.60580064899038
H          -5.86359456842461  -17.98735826905139    0.77558194093447
H          -8.32062584564112  -22.93957831874447   -2.06076059535767
H          -9.48735374123696  -23.66176968620238   -4.30831552806467
H         -12.16982222069197  -24.29483319807638   -8.84104032304260
H         -14.70771124223381  -19.37208617768205   -9.28893574333920
H         -13.45420425003359  -23.87651128588185  -10.93577837982880
H         -13.48007548035139  -19.76450250195452   -7.21067052335817
