121
 SCF done       -240.470043772864          0.000492032646
C          -7.49888029975276  -13.93026193587519  -13.13425718626880
C          -8.59883810515659  -13.66673687622642  -13.90130990113181
F          -8.83717914610415  -14.38489037887679  -15.00660360362633
C          -9.49466970968095  -12.63978922976769  -13.54198224156026
F         -10.56570790949082  -12.40369436265314  -14.31215519437189
C          -9.27772856599634  -11.89011104638731  -12.42011443539842
C          -8.15304388179507  -12.13720228344661  -11.60917594987668
C          -7.24581185229629  -13.17470484684112  -11.97166474355760
C          -6.10771764920983  -13.43786591345610  -11.17528358214775
C          -5.88478617218294  -12.68587628093177  -10.05207911986843
C          -6.79924270368151  -11.65812307199542   -9.69371956681190
C          -7.90593544063374  -11.37986909523748  -10.44287148918499
C          -6.35086888327528  -11.00500209331340   -8.44708116898598
O          -6.91401875763167  -10.08491382726858   -7.89127393402118
C          -5.13877841021624  -11.74683894779316   -8.02475945463935
C          -4.81400287696133  -12.71117200415439   -9.06119097063936
C          -3.66337396572814  -13.44885578824992   -9.15509454667874
C          -2.56435084680012  -13.35688184911127   -8.27336901454093
N          -1.61611173197798  -13.30804426344666   -7.62817932720332
C          -3.40054932652415  -14.36495650119143  -10.19513754299042
N          -3.13679801087695  -15.12905474020833  -11.01008756847516
C          -4.53192207308112  -11.70960532142583   -6.79719734038156
C          -4.71481648767325  -10.79629139847056   -5.73993330520404
C          -5.21318088142406   -9.50202223354325   -5.72907826456291
C          -5.21654246288202   -8.90732614575407   -4.47174384324205
C          -5.66475523572481   -7.53126702737816   -4.24666708389595
C          -6.86795666513036   -7.12000513223218   -4.80718191957730
C          -7.30370549760182   -5.81228156958948   -4.61164744140941
C          -6.53412664288941   -4.94000893392523   -3.84904817715018
C          -5.32192635402425   -5.34789505864416   -3.30153290245538
C          -4.87683657176227   -6.64896186424584   -3.51384220220858
O          -4.65539298331805   -4.41316696591575   -2.57819908180577
C          -3.45119774734418   -4.77883050662364   -1.94594782707411
O          -8.45456763490314   -5.30087787533331   -5.11480288153069
C          -9.26496309053231   -6.12806944665512   -5.91788659480046
C          -4.73289499814663   -9.76950272650489   -3.47666571183570
S          -4.20026798535956  -11.28266953926714   -4.13947303712211
C          -4.70665805310496   -9.60613974421458   -2.07857644363575
C          -4.13150438407350  -10.52337583490984   -1.18789545287345
C          -4.28603451879472  -10.14609394638986    0.18443680788565
N          -3.74580078125606  -10.85886421891393    1.16890224853484
C          -3.08820190319707  -11.94664387761370    0.82997043247508
C          -2.45489166563893  -12.72066694581575    1.92518892788573
O          -2.57842644916570  -12.41868212587068    3.09543985230346
C          -1.67068102910841  -13.88555067899134    1.48707988640531
C          -1.59116121451501  -14.28690835363778    0.21387411809145
C          -2.27408223356471  -13.61125910404320   -0.90463161049628
O          -2.26099270206345  -14.04885740152005   -2.03410806048762
C          -2.98165094673427  -12.35681934453786   -0.53847098292375
N          -3.48852945287270  -11.64325368828735   -1.52084789213871
C          -5.00073853272266   -8.95414349519261    0.35401231779832
S          -5.45408340292385   -8.30685618613304   -1.18825689459884
C          -5.20276807229365   -8.35113050895886    1.60732115735084
C          -5.65924236920337   -7.08721422741107    1.93501460957681
C          -5.56315202180427   -6.79942149746520    3.29970880328043
C          -5.92645723961143   -5.51370761997329    3.88691547959712
C          -7.06509710903675   -4.85351063062481    3.43888798815955
C          -7.43290120170760   -3.63486733988717    3.99920896855133
C          -6.65587574110622   -3.06601890815014    5.00483000783005
C          -5.50738316166067   -3.71984799865351    5.44162407338082
C          -5.14434189811934   -4.94297559684283    4.88328178198346
O          -4.67599974510006   -3.24665730739946    6.40469072288798
C          -4.97788062542627   -2.02157970001706    7.02729417162181
O          -8.56792327651428   -3.07876741468213    3.49903607131578
C          -9.00452917413627   -1.84188184556863    4.00852122933093
C          -5.02628193344721   -7.86561794620543    4.02766125820077
S          -4.69758564761658   -9.23711717809623    3.01072353266270
C          -4.81485920682141   -7.95342712539733    5.42518988192659
C          -3.96828134857720   -8.81166327677126    6.05741628388687
C          -4.17455257515475   -9.15529546995496    7.49128058195870
O          -4.84946281454095   -8.55356343336032    8.29353974629542
C          -3.44085975572879  -10.42476198828092    7.68659646402226
C          -3.42058994971128  -11.25135662655025    8.77319970269549
C          -2.68539328457012  -12.45658093091797    8.70450088495966
C          -1.99749637277918  -12.79283092648625    7.50151083320555
C          -1.28626787078981  -14.00787673365648    7.43623959780281
C          -1.25256045449679  -14.84648646881338    8.51428419087619
C          -1.92792535594630  -14.51076099469264    9.70462967467385
C          -2.62978534883726  -13.34199688588040    9.79891748281244
F          -1.87769815132823  -15.35212638046380   10.74755895188554
F          -0.57407330342574  -16.00111598597315    8.44961869057536
C          -2.02675742619194  -11.91436780823341    6.39514967033059
C          -2.72537588646923  -10.74243001559203    6.49654397788898
C          -2.89848915188377   -9.65110340290493    5.54685877011102
C          -2.03035721762018   -9.34858115542696    4.53377725776486
C          -2.08753060628424   -8.14675886624976    3.79708994797565
N          -2.07889997516802   -7.16275848703752    3.20540192250767
C          -0.94901160199217  -10.16552897235172    4.14666322462093
N          -0.05080936278188  -10.77694039009588    3.77679230943801
H          -6.82237049202296  -14.71890397872049  -13.42446809316848
H          -9.97299148547019  -11.10780905239114  -12.15861804854739
H          -5.44372933503721  -14.23325479070342  -11.47246565471784
H          -8.58309362642611  -10.59191135682670  -10.14984652498062
H          -3.84682619174608  -12.51706548638707   -6.56439315735275
H          -5.53869894372461   -8.99183976896703   -6.61532265943481
H          -7.44469882891465   -7.83066664779628   -5.37560892511987
H          -6.87581399578016   -3.93146431170799   -3.68821388334226
H          -3.91696093035132   -6.97871491369153   -3.15073876040569
H          -3.12525471173628   -3.89511769245170   -1.40034613468026
H          -2.68187831535127   -5.05679467054765   -2.67299017610096
H          -3.60136900442918   -5.60249876982261   -1.24012965618376
H         -10.10215341425527   -5.50508530075424   -6.22815822093090
H          -9.64275839874083   -6.98779962715740   -5.35579889257322
H          -8.72732613800750   -6.48081926162904   -6.80305600186969
H          -1.16004130425288  -14.41929102671663    2.27690911189469
H          -1.01689472255665  -15.16008810783805   -0.06491658415716
H          -6.00044495789119   -6.38431973816885    1.19576424958699
H          -7.69473124402922   -5.28036156531339    2.67584165785872
H          -6.93842362740050   -2.12143174333284    5.43743084516195
H          -4.22858624220450   -5.40788648167233    5.20900698371630
H          -4.18393281901296   -1.85889101487650    7.75412571014041
H          -5.93984344486558   -2.06073633402187    7.54863819417882
H          -4.98331139249088   -1.19484913456045    6.30940674506888
H          -9.91450342961498   -1.60394207248432    3.46016257014157
H          -8.26547406581212   -1.05231355102044    3.83829279263470
H          -9.23465803512972   -1.90425762009203    5.07704305703026
H          -5.44744008605953   -7.34149088594930    6.06022786894006
H          -3.96088161342107  -10.99408811247986    9.67158271788890
H          -0.76132932752883  -14.27561191738563    6.53286332500294
H          -3.14250071568861  -13.10122502547611   10.71706185185668
H          -1.52788809409768  -12.19323996467710    5.48115468832569
