101
 SCF done       -221.604651461465          0.000425308364
C         -11.90179385622264    1.18071814816336   -0.92395996700066
C         -12.83124084454981    1.29557808928921   -1.91967409664688
F         -13.54013169531179    2.42346023416706   -2.05185421876923
C         -13.05631339977891    0.23252469779418   -2.81737997134987
F         -13.97375118974915    0.37238343061361   -3.78300291927862
C         -12.34848916801616   -0.93147945576890   -2.70652116774064
C         -11.38530986109343   -1.08058605343791   -1.69001063060395
C         -11.15581560690612   -0.00644146616810   -0.78204412975373
C         -10.19473945271255   -0.13348189430126    0.24773258139537
C          -9.48797778933594   -1.30060057181084    0.36882153543055
C          -9.72938174132555   -2.36895330814396   -0.53969578184938
C         -10.64539999029651   -2.27514891901470   -1.54732286414568
C          -8.86692680238289   -3.50632491745067   -0.18373250182859
O          -8.80252610665304   -4.57404950620056   -0.76983798902514
C          -8.12271987729593   -3.10105450388339    1.01274630274714
C          -8.45774595156291   -1.72125252218070    1.31684310254202
C          -7.90071537282811   -0.92428635105212    2.28171248325045
C          -6.86522356123657   -1.30283295735897    3.16270748969689
N          -6.01858433235185   -1.53118695343591    3.90393816068326
C          -8.27739167711048    0.41676765715687    2.50942055641870
N          -8.53961472928725    1.50896480093319    2.74499842720047
C          -7.31945453027857   -3.92093489469837    1.76510251964602
C          -6.97184719153805   -5.26713947475956    1.57837871512964
C          -6.22467292989910   -5.97589880335711    2.52942815060611
C          -6.02030180520943   -7.29289103385281    2.16835772929656
C          -6.59482452040169   -7.59516076603806    0.90956252471625
S          -7.40218555756283   -6.27748396595881    0.19799195762189
C          -6.36229916847758   -8.96536915542892    0.64361872238201
C          -5.65717872344766   -9.53310772989452    1.72132864702996
C          -5.40718260520997   -8.49753530858979    2.71047380704068
C          -4.75061520141144   -8.63398074817482    3.89738406129750
C          -4.20393720683096   -9.86613711523400    4.31639370644880
N          -3.75905020390106  -10.86412563775266    4.66318777410795
C          -4.57759907116214   -7.55351529255160    4.78908586533150
N          -4.44151925998411   -6.67911009688437    5.51755423881422
C          -5.42846771273626  -10.89895218344153    1.56178516572126
C          -5.94449312018337  -11.37463368998169    0.37050547201618
S          -6.71687792965971  -10.10648955278481   -0.57188195936408
C          -5.95539360077640  -12.72359985997547   -0.10572598894774
C          -6.39254840668374  -13.05089964257504   -1.38047752565031
C          -6.47850933411278  -14.36643741605719   -1.81711466143372
F          -6.92504582806970  -14.55021270373161   -3.07729803324676
C          -6.17663861537318  -15.48272791214526   -1.04253944198740
C          -5.68587049194621  -15.17339883110622    0.25741092894803
C          -5.56305693366854  -13.81446982540332    0.71751405164539
N          -5.08192756830380  -13.75735621235869    1.95773849155882
S          -4.80336908984754  -15.24402929975860    2.49038925948529
N          -5.28361923840492  -16.04115579594576    1.18410161891134
C          -6.37842492963071  -16.83186247285517   -1.47652065463910
C          -6.33813105804334  -17.96584579863393   -0.68123119493956
C          -6.65057548323617  -19.11674363005686   -1.39813230244111
C          -6.90790896023364  -18.86007655642887   -2.75900096299572
S          -6.78823254662092  -17.20576598231358   -3.14273445104253
C          -7.23530242368529  -20.08241278234794   -3.39502691559631
C          -7.20465670189412  -21.11002447128237   -2.42837160427792
C          -6.82496987752760  -20.53782033683002   -1.14732913883954
C          -6.66705330437523  -21.20529292180751    0.03148363597239
C          -6.88035706079979  -22.59757619509995    0.11774213655270
N          -7.06984073803963  -23.72730880286330    0.16983681851901
C          -6.29986085460157  -20.55044454333079    1.22606155244741
N          -6.01376162186087  -20.01824804723013    2.20027189179943
C          -7.52316892597698  -22.35471569447210   -2.95098599040393
C          -7.78429141477760  -22.30183740489012   -4.31476192274694
S          -7.65775761869841  -20.65776255969645   -4.93733659617752
C          -8.18617740900329  -23.32643038469125   -5.19392733287678
C          -8.17805651361454  -24.67906160150873   -5.01878843733035
C          -9.06529860807404  -25.50214765377770   -5.88958674221948
O          -9.62157994476335  -25.13905021637895   -6.89959833435008
C          -9.15952255816345  -26.81246778045526   -5.21768819004936
C          -9.95514605948576  -27.87844128753537   -5.52381928996824
C          -9.91395738581756  -29.02411640509300   -4.69802323380188
C          -9.04950007338207  -29.03943677154975   -3.56477335871293
C          -9.02575037052467  -30.17986984817415   -2.73714929903056
C          -9.81980431971548  -31.25496623156143   -3.02279343136113
C         -10.67205037939117  -31.23964128980801   -4.14533355066551
C         -10.71879017423828  -30.14833081566862   -4.96666638038853
F         -11.44036474834367  -32.30710611465114   -4.40034435789977
F          -9.79647964890858  -32.33767461633929   -2.23512683351980
C          -8.22800805911824  -27.92429902026126   -3.27957060681704
C          -8.27753547691052  -26.82972670319203   -4.09992680574609
C          -7.54641250444807  -25.56396523293729   -4.06517639785267
C          -6.34318913395998  -25.37436034890852   -3.43584123533851
C          -5.54764187964524  -24.22522771202298   -3.60578904206737
N          -4.87022115397103  -23.30772306508770   -3.73844505190774
C          -5.72189217242483  -26.34770282700991   -2.62513779600607
N          -5.17489225123653  -27.11082596161348   -1.96595700406642
H         -11.74185906577483    2.00456052274578   -0.24608356136189
H         -12.53258978860498   -1.73614585315500   -3.40099887505101
H         -10.04854479522530    0.69728105424984    0.91857308097615
H         -10.80546640050142   -3.10164444345277   -2.22285685817585
H          -6.89989338506248   -3.49902270300050    2.67064743718621
H          -5.87349046369285   -5.51788237458846    3.43727873469675
H          -4.92530610004566  -11.54016177925426    2.26177632173811
H          -6.69145345920716  -12.27557632642884   -2.06955769295463
H          -6.09876905125774  -17.92281206153935    0.36497859889484
H          -7.61747075229234  -23.25323439207937   -2.36966568587680
H          -8.64685442288957  -22.99923187992020   -6.12176141707459
H         -10.61040517769194  -27.84666698046259   -6.38089303365110
H          -8.37695643524290  -30.20943059425095   -1.87579623288272
H         -11.37692159425723  -30.15145842987701   -5.82139999059646
H          -7.59080591241539  -27.95723840043835   -2.41024261495209
