97
 SCF done       -210.064782337075          0.000615735089
C          -2.49438050449888    2.65454760871860    3.45180144625727
C          -1.95581796006646    3.12371806807169    4.61688815393677
F          -1.65873830297330    4.42293441951883    4.74582983523676
C          -1.70586966162231    2.25047411716225    5.69511253101662
F          -1.17601699078304    2.73875374240672    6.82393563471337
C          -1.99873202796942    0.91937117853356    5.59310277527668
C          -2.55407934349393    0.40535912429911    4.40519827499378
C          -2.80783016028957    1.28713034004087    3.31434396839275
C          -3.36701222110447    0.79489333484035    2.11307236627768
C          -3.66381445998912   -0.53885982906706    2.00629137146539
C          -3.40059187407455   -1.41123495748317    3.09743117962736
C          -2.86216950298891   -0.96627895836593    4.27037188975137
C          -3.78787864668831   -2.78844958924560    2.73795522436190
O          -3.67418454413893   -3.76517054713492    3.44554918217483
C          -4.26742673025058   -2.71474524746028    1.33458651209917
C          -4.24498912934036   -1.32110495487093    0.92015627628191
C          -4.75139119682318   -0.80194566780970   -0.24275270067688
C          -5.40834044597522   -1.53411833795343   -1.25486828688168
N          -5.97261644383502   -2.05170378977328   -2.11091262625862
C          -4.71594796202375    0.56962371632311   -0.57455448677931
N          -4.71146394369279    1.66773677571231   -0.90827888146858
C          -4.54024643789448   -3.75763243780543    0.49246903187952
C          -4.69784768616515   -5.13303006933832    0.75845964411328
C          -4.87513298751125   -5.84351002082371    1.93994523378907
C          -5.05611922049937   -7.20051945212870    1.71085383116613
C          -5.01065900968509   -7.54397583544703    0.34161455894780
S          -4.77218669980996   -6.19216821606515   -0.65740594519465
C          -5.18848903360959   -8.94441394078445    0.22076141186654
C          -5.35588963295492   -9.48764202133106    1.51118320510297
C          -5.28445358504715   -8.41075779054826    2.48701502515429
C          -5.42180819724843   -8.51209591333118    3.83886268624782
C          -5.63517517889164   -9.75166542247712    4.48175921226185
N          -5.80755892278848  -10.75173083713820    5.01428698798797
C          -5.38378849422511   -7.39316994199867    4.70055527134753
N          -5.37799151496020   -6.50209612102444    5.42101365377286
C          -5.55472111547026  -10.86709496152335    1.48914034433521
C          -5.53153524850790  -11.35630242163590    0.19751251795176
S          -5.26430553260280  -10.12313666529802   -1.00954540404663
C          -5.71421863836151  -12.70797318695132   -0.22975712413307
N          -5.61453040444103  -12.96057655998357   -1.54883149710788
C          -5.83978871011124  -14.19150123129945   -1.92085589091205
C          -6.21373921287757  -15.17114965793646   -0.97478440092424
N          -6.22133433236450  -14.84350840650022    0.32677842161560
N          -5.95878857866338  -13.64232392626930    0.69411558400074
C          -6.57870971879904  -16.51063427670430   -1.32131384383639
C          -6.98433588282906  -17.49962965503233   -0.44663350738194
C          -7.29630757644963  -18.68321876225194   -1.11448794589363
C          -7.11627408120723  -18.58659439028480   -2.50750786006367
S          -6.57069882845134  -17.04653781761439   -2.99169724857668
C          -7.46073527059525  -19.82729175228260   -3.10109448000490
C          -7.87157165596075  -20.70515683089364   -2.07877143658913
C          -7.76684691460697  -20.02265306237918   -0.79910262942273
C          -8.02611398337907  -20.55652341513159    0.42811386197892
C          -8.45636850043930  -21.89414024067313    0.56424855211084
N          -8.81136436608203  -22.98090509689793    0.65125173906467
C          -7.88355617666288  -19.82181617748663    1.62493588766208
N          -7.78040168735719  -19.22670383922110    2.59863307701058
C          -8.22024693795878  -21.96210276482237   -2.55377986359600
C          -8.06786277012307  -22.06441869723724   -3.92959509107967
S          -7.51727696740361  -20.55144678052115   -4.63918931381847
C          -8.33701062210751  -23.16225285060734   -4.77572575398679
C          -8.50859847337505  -24.47401368327440   -4.45300776198500
C          -9.20125269169148  -25.35893769656993   -5.43602080150510
O          -9.42708217718262  -25.10544643592089   -6.59561025793734
C          -9.59220428856113  -26.55701522784823   -4.66950204021508
C         -10.36351851711281  -27.61323504451982   -5.06140570265112
C         -10.64721378907645  -28.63786412116444   -4.13097547454327
C         -10.13200395883831  -28.54226418238714   -2.80511460091964
C         -10.43258181934361  -29.56028510761639   -1.87794423374942
C         -11.20348637952426  -30.62549184501218   -2.25071444635331
C         -11.70879994538235  -30.72123055205714   -3.56341782810975
C         -11.43739319541381  -29.74894522887765   -4.48481907130434
F         -12.46146146196655  -31.77620676428817   -3.90065037586995
F         -11.48775115028404  -31.59214903644285   -1.36961260439652
C          -9.32714272006729  -27.44182371211674   -2.43101286366135
C          -9.05279868430742  -26.46896637639566   -3.35433551418149
C          -8.24247652230572  -25.25615723438218   -3.26346540783387
C          -7.23865028938000  -25.05677348013219   -2.35233698634432
C          -6.31832695597792  -23.99298978320602   -2.41931580293085
N          -5.53920539262902  -23.15045972726175   -2.45562466725752
C          -6.95126498623620  -25.94839742450877   -1.29636961668548
N          -6.67646922476985  -26.64374253013294   -0.42649918055981
H          -2.68065065773727    3.33690938500954    2.63718052103746
H          -1.80200923477402    0.26373810438019    6.42683958660420
H          -3.54113447722003    1.48729583921031    1.30559513779625
H          -2.67667960934600   -1.65267337507810    5.08245996330475
H          -4.64376609307318   -3.51276452396373   -0.55851361693638
H          -4.86176346533892   -5.37468106049359    2.90670383459564
H          -5.70905596384066  -11.50553729017179    2.33962039396199
H          -5.72493058414044  -14.42154884520422   -2.97294338264698
H          -7.04169450908484  -17.33083129471756    0.61322158102172
H          -8.61208167422411  -22.75745933343800   -1.94697990883662
H          -8.49816812598618  -22.92943868238226   -5.82429300315613
H         -10.75445470659761  -27.66502263269779   -6.06612832392921
H         -10.05076112265125  -29.50422594628691   -0.87053919359579
H         -11.83238483409119  -29.83646557335904   -5.48484918911198
H          -8.95862995108631  -27.38785867676766   -1.41903930380162
