104
 SCF done       -219.419827944096          0.000366385770
C          -2.82470133375060    3.05297266786547    3.05862153146172
C          -2.20796094527185    3.96218289479800    2.24599362415056
F          -1.96697761165423    5.20405225028604    2.68630950594820
C          -1.81820361051240    3.60822356845199    0.93835214525801
F          -1.21660865423553    4.52124071497331    0.16428978120953
C          -2.04946312681460    2.34837830927076    0.46179580435513
C          -2.68233819049730    1.38869871468760    1.27550051736410
C          -3.07895543904976    1.74550754667607    2.59705064776554
C          -3.71863668797109    0.80072977264895    3.43158677236034
C          -3.95396180315707   -0.46481656622783    2.96022639022097
C          -3.54973950239094   -0.81056695300529    1.64289147185777
C          -2.93233639606212    0.07868761971790    0.81148798221819
C          -3.90048747587741   -2.21659012783814    1.37035218669561
O          -3.69165378420451   -2.80349997373469    0.33005301428407
C          -4.54045244287776   -2.72126351165058    2.60824905673641
C          -4.58294028176966   -1.63228945762999    3.57313221338236
C          -5.11284464818183   -1.65340514012216    4.83797168696667
C          -5.74266957361156   -2.74442683215836    5.47383674447123
N          -6.27173115355929   -3.56984574221710    6.07315766336479
C          -5.10871890077296   -0.54614369840489    5.71410326938346
N          -5.14155774442868    0.30711220201081    6.48123102292441
C          -5.01407588964756   -3.98072784236175    2.86671165131799
C          -5.04241238722724   -5.15455699867742    2.09144307047342
C          -4.61973399123045   -5.46011373601027    0.80159323386823
C          -4.84329269815829   -6.78937496261993    0.47734501510662
C          -5.44882630727264   -7.52422330739789    1.52499343796387
S          -5.74089985834008   -6.57193667508598    2.89873985380598
C          -5.61550911853832   -8.86173966859097    1.09767113004219
C          -5.11933023847594   -8.98102579980685   -0.21293690470757
C          -4.62120020670482   -7.68503884194617   -0.64777775278723
C          -4.06017544548083   -7.39097672965823   -1.85453650976985
C          -3.89766122969888   -8.36908341616640   -2.86041241458874
N          -3.75981990732291   -9.15551831841860   -3.68314265810449
C          -3.59683743647976   -6.10289605016861   -2.20331693102703
N          -3.21065180192349   -5.07275443690918   -2.52383484390888
C          -5.22411882663357  -10.27442968603908   -0.71836463289805
C          -5.79254780627833  -11.15089596597578    0.18762592728167
S          -6.21112279609036  -10.34291285479106    1.69868744334237
C          -6.03672842210859  -12.55757028072683    0.04608163017964
C          -6.60593145975242  -13.28427146212078    1.08411080841999
C          -6.81450310543328  -14.65043040409717    1.00762427535819
C          -6.46787045306419  -15.39546101570854   -0.11224511020707
C          -5.90902378731472  -14.68427643516375   -1.22128956514530
N          -5.58716111556884  -15.34399976061079   -2.34811333188691
C          -5.07586317905521  -14.68197775676558   -3.35034622213108
C          -4.86260659228732  -13.29536785188973   -3.27213741041128
N          -5.17061906557616  -12.62488515463339   -2.19530116734664
C          -5.69566834490023  -13.27709295345518   -1.14299317117557
C          -6.65426783337722  -16.81765725240239   -0.13027710543031
C          -6.28801400470013  -17.72709945725418   -1.10475930286284
C          -6.60780175526305  -19.03682995944293   -0.75577011147393
C          -7.22985149538966  -19.13657829492601    0.50220441735996
S          -7.41594102781370  -17.61526758581370    1.24742928633702
C          -7.49451598472448  -20.50228932387742    0.77090985269419
C          -7.03533230098634  -21.26533213612044   -0.32338379048767
C          -6.46108296057428  -20.37021543830883   -1.31369673309828
C          -5.88051482630723  -20.72274631446380   -2.49624805284232
C          -5.78550563646796  -22.07440527845143   -2.89008539951212
N          -5.71981866146248  -23.17823751008579   -3.19366209847112
C          -5.34655634971630  -19.77081659682863   -3.39056205470531
N          -4.91804132835566  -19.00159401778630   -4.12460271409197
C          -7.20883726529719  -22.62937471429885   -0.14228026653114
C          -7.79585013524829  -22.92764386740325    1.08029250687602
S          -8.16503971814156  -21.47090652288180    1.99777466938963
C          -8.14383018209560  -24.18917494484560    1.60674448091667
C          -7.68326976875511  -25.41824038513525    1.23775929297377
C          -8.48634773053984  -26.62147436603476    1.59704337199534
O          -9.41180775545019  -26.66416717984138    2.37358799023945
C          -7.94550000012818  -27.71237683678966    0.76246914068989
C          -8.40255326652945  -28.99046804553532    0.61651692351809
C          -7.73592439025780  -29.86006138222912   -0.27574951020416
C          -6.61136122303381  -29.38235818949818   -1.00991275660901
C          -5.95734891106045  -30.25197256514563   -1.90557209090572
C          -6.39551280682731  -31.53707819294894   -2.06114452637673
C          -7.50611872237278  -32.00938956383892   -1.33284647243900
C          -8.16356281175272  -31.18954912623573   -0.45900813251453
F          -7.91410261081794  -33.27351816649159   -1.50594828855600
F          -5.77163718824613  -32.36336950060157   -2.91016472600258
C          -6.15712324206851  -28.05531762465238   -0.83363822837510
C          -6.80888252919262  -27.23646037655027    0.04875458873875
C          -6.54783468526380  -25.85727133705598    0.45494936125572
C          -5.33674426685098  -25.22687109005358    0.33187429637074
C          -5.02430538398275  -23.99257304264415    0.93332720104416
N          -4.71533018223002  -23.00216256164474    1.42539047084507
C          -4.22462966362050  -25.78629487041369   -0.33240192582531
N          -3.28912913336715  -26.19561725972092   -0.85539383004658
H          -3.11680207398676    3.34088230390756    4.05648745845182
H          -1.74513472354346    2.09202602889778   -0.54087396607603
H          -4.00425133315792    1.10657956893972    4.42453825770426
H          -2.63986279806491   -0.21678604728690   -0.18460759885008
H          -5.44159153543841   -4.12714225013371    3.85152686691563
H          -4.17139351639377   -4.72523013007542    0.15633244930046
H          -4.90818288458722  -10.59695719492536   -1.69272598268816
H          -6.88756271469594  -12.77010085124619    1.99180790197299
H          -7.25062353352602  -15.15400659510141    1.85834230925852
H          -4.83202839830907  -15.25582554791568   -4.23346677828985
H          -4.44333232851232  -12.72703566976139   -4.09052156783264
H          -5.80999148489651  -17.41921500587052   -2.01585494588979
H          -6.96447392709007  -23.37980706415484   -0.87183206681389
H          -8.92739999222054  -24.20078172420991    2.35828132892286
H          -9.26113437842102  -29.33382347450931    1.17319832558636
H          -5.10379565608291  -29.90696533955783   -2.46786283595783
H          -9.01215622684678  -31.56638147969281    0.09014397509114
H          -5.31174397874041  -27.71495854167393   -1.40994474804888
