106
 SCF done       -228.841768396647          0.000965759163
C          -3.62865491012578    2.36835993063240    5.44178665858876
C          -4.47353611685482    2.96981923872097    6.33177970094053
F          -4.15059079963108    4.15111541396695    6.87374661539858
C          -5.69127614722170    2.35759368422000    6.69133164814483
F          -6.49843344754862    2.96937259867609    7.56800283769788
C          -6.04773451454395    1.15209785017704    6.15484500344578
C          -5.19784620140650    0.50640023492854    5.23594347405977
C          -3.96628260688799    1.12444858164491    4.87143323836532
C          -3.09658982634062    0.49491697999992    3.95187802223324
C          -3.44810753363303   -0.71588957541760    3.41565736663869
C          -4.67602003464774   -1.32797076339035    3.78960083532658
C          -5.53757308776660   -0.74368340413880    4.67258062739718
C          -4.81586980418396   -2.62518475156712    3.09870989208822
O          -5.74298166053709   -3.39714381614428    3.21087749808961
C          -3.56128205697351   -2.79767078689893    2.32520325761008
C          -2.76946703599310   -1.58912262485391    2.46439823707419
C          -1.63380364642418   -1.27405135642151    1.76456029366228
C          -1.04387663633276   -2.08052381938618    0.76810002617336
N          -0.52807057468256   -2.67102801566506   -0.07093563792532
C          -0.92107151560618   -0.06677371394724    1.92278477304450
N          -0.29438027291337    0.89030793152732    2.01549562135558
C          -3.10769089305190   -3.95250243619405    1.74807496121293
C          -3.80016616983505   -5.14608700182327    1.46563089191957
C          -5.15629731700808   -5.42536127265989    1.34318618143189
C          -5.38729235895838   -6.74990703318758    0.99873962749688
C          -4.19863941434717   -7.50428816026255    0.86438692238840
S          -2.80534256859613   -6.56853127645105    1.12001589219141
C          -4.54153177334151   -8.83876490697826    0.54905098830068
C          -5.94599994292601   -8.93419461719331    0.47636499651961
C          -6.52078872373968   -7.62167624323115    0.73685072490414
C          -7.84113728396573   -7.28322133068382    0.70796628172775
C          -8.84328355281030   -8.23722882812956    0.42965585846815
N          -9.65202359947460   -9.01686276025216    0.20008596089021
C          -8.29995371814456   -5.96483021584890    0.92103222253193
N          -8.69925579691803   -4.90140357562995    1.07243445302110
C          -6.38161609363333  -10.21969471500872    0.17983503048909
C          -5.32586591228877  -11.11471218259875    0.04066319271025
S          -3.77084955989123  -10.33725409329902    0.28536497934460
C          -5.40399082581501  -12.49739898641036   -0.29256644600679
C          -6.55178297753459  -13.09531502697431   -0.71817416893484
C          -6.62142230224191  -14.45991475824732   -1.08706496644934
C          -5.59352466403079  -15.32805475255088   -0.87939076144354
C          -4.36183914398454  -14.83769260639169   -0.14971264617119
C          -4.12464523288422  -13.31963756502899   -0.27605014387397
N          -3.25179051433244  -12.81579170298594    0.75721398856067
C          -3.22684390766745  -13.39466600971781    1.87464586173356
C          -3.98758531011868  -14.63061976296812    2.13963820838833
N          -4.50805967444813  -15.30293724377611    1.21425196521293
F          -4.11829267990237  -15.02611761283474    3.39783549984017
F          -2.46424068399239  -12.90575070516953    2.84172153942467
C          -5.64868387148604  -16.71328461148325   -1.19494694516022
C          -6.64198615397429  -17.40179490303483   -1.87988627259881
C          -6.34673669297545  -18.75359470692510   -2.01576006476932
C          -5.11963493374752  -19.11010988273752   -1.42281386731669
S          -4.33795188527692  -17.77638272702680   -0.70536577712820
C          -4.89803203083518  -20.49148929663328   -1.63211060911828
C          -5.98861186650931  -21.01167678483650   -2.36121000130364
C          -6.92856900901320  -19.93811388712426   -2.63001009795646
C          -8.08637226280750  -20.02412117299296   -3.34555904573208
C          -8.50835281982596  -21.24440917773280   -3.91477502220468
N          -8.83573291509904  -22.24501273131136   -4.36893044513766
C          -8.91876672991509  -18.90572687550348   -3.56029860145185
N          -9.59235483591456  -17.99297736337157   -3.72526778280591
C          -5.84028091936178  -22.35716968400207   -2.66775349721285
C          -4.64718058789063  -22.87771766961386   -2.18510896025629
S          -3.71902904962501  -21.67066486043267   -1.29996125589605
C          -4.14021712215400  -24.18985964926153   -2.29179800566398
C          -4.48238349660201  -25.17150095889163   -3.17310525313225
C          -4.12283080763752  -26.58044171283237   -2.84226249766496
O          -3.37264682212663  -26.94424202849616   -1.96704227738466
C          -4.91492878118755  -27.41181618917320   -3.76866365346683
C          -5.03975293713611  -28.77062113009899   -3.81030339186247
C          -5.89100689699216  -29.35210197978204   -4.77650249825456
C          -6.60834714007575  -28.50945000447756   -5.67499745519574
C          -7.46498734783848  -29.09554463079488   -6.62834342151924
C          -7.59829943700964  -30.45425445975151   -6.69110729372061
C          -6.88526360018354  -31.28687165635550   -5.80480588290353
C          -6.04965692709892  -30.74874028328810   -4.86661373626000
F          -7.03506437800118  -32.61513513317730   -5.88951248006576
F          -8.41037395727383  -31.01007130679536   -7.59882887317239
C          -6.45335094565267  -27.10561755768634   -5.61274995860523
C          -5.60846452421763  -26.56590733995490   -4.68050928000147
C          -5.22394158842716  -25.18074558577486   -4.41597361158313
C          -5.32597190600249  -24.16029556217367   -5.32578604993433
C          -4.73485062248973  -22.89270433235213   -5.16454331823450
N          -4.25113953856660  -21.85371385952695   -5.09192661443760
C          -5.95211331924217  -24.29046272398713   -6.58383466295717
N          -6.44380711567863  -24.34215304512055   -7.61909853072218
H          -2.70115196999011    2.85127713675855    5.17634090798364
H          -6.98305128931642    0.69646680568633    6.43995124728627
H          -2.16919817180911    0.98415960310479    3.70160183001850
H          -6.46427973129876   -1.22985791852863    4.93694612466699
H          -2.05498176089317   -3.98833157699419    1.49111289313417
H          -5.91970756759077   -4.68698255926315    1.50254863833145
H          -7.41315302147452  -10.50304279040616    0.08534148366040
H          -7.45505524728164  -12.51316064435937   -0.80423029437314
H          -7.53986332074355  -14.80785082182210   -1.53174449095127
H          -3.47827903501368  -15.35859875352469   -0.54810697338285
H          -3.60566018077188  -13.11754892350520   -1.22444035878013
H          -7.52551409793928  -16.93149737108151   -2.26921181826991
H          -6.57282803850923  -22.95308408444594   -3.18112389621212
H          -3.41660851165481  -24.48823266270918   -1.53885722025874
H          -4.49685406561669  -29.39351915639877   -3.11588688075793
H          -8.01470089568687  -28.47269585733873   -7.31655847373252
H          -5.51167813902423  -31.39960886310314   -4.19530957017607
H          -7.01546815463139  -26.49070653077677   -6.29724324074114
