98
 SCF done       -215.325175649761          0.000700866837
C          -5.61001664533459   -0.01762178733925   -8.32697218191440
C          -6.09075499849214   -0.19786559703426   -9.59382715433844
F          -6.10756910349736    0.82337963066778  -10.45891647365164
C          -6.57386098641802   -1.45642820848642  -10.00582895888507
F          -7.03865600819856   -1.60419619798683  -11.25290742637839
C          -6.56998137809647   -2.51766611992300   -9.14435756846304
C          -6.08194433399231   -2.36298768939082   -7.83236750228212
C          -5.59249694395000   -1.09143959544735   -7.41441675791055
C          -5.09757053397743   -0.91162444757499   -6.10190919934472
C          -5.09313875507331   -1.97028026071627   -5.23226376113166
C          -5.58528547584445   -3.23507378568087   -5.66006743695516
C          -6.06807661552629   -3.44117128962578   -6.92033193313843
C          -5.47557498961308   -4.19315626112716   -4.55006000465484
O          -5.81104065455701   -5.36558677636130   -4.57350698945370
C          -4.88627894949342   -3.45926862413301   -3.42502335600868
C          -4.65591095381450   -2.08662961179738   -3.84191562244390
C          -4.13453473655583   -1.06462622305335   -3.09354409622303
C          -3.71839043793249   -1.15332585416190   -1.74782604077972
N          -3.36094578172896   -1.14006017667431   -0.65671978370040
C          -3.94248729303222    0.24798325256421   -3.57650531027115
N          -3.76032541065356    1.33205046289423   -3.90620388264631
C          -4.59361459459308   -3.99117284615253   -2.19462261382158
C          -4.77962663988845   -5.29177566407002   -1.70008772316341
C          -4.39835556227986   -5.64750472486280   -0.39870345749768
C          -4.66960599911593   -6.97111051013526   -0.11006504864413
C          -5.27125257694015   -7.63911432210431   -1.20302648832377
S          -5.49243997499470   -6.64996141010641   -2.56951656448737
C          -5.50806560513187   -8.97912897807634   -0.81746743362892
C          -5.06231676664002   -9.16907184670232    0.50565381867531
C          -4.52156823545035   -7.90931961699267    0.99479202333402
C          -3.98895475810107   -7.66047027432734    2.22414116402476
C          -3.89735278929328   -8.65448624237624    3.22255103428048
N          -3.82456312031275   -9.45346489124376    4.04104145311106
C          -3.49205428948798   -6.38872354874422    2.58411661071485
N          -3.08056665920289   -5.36069250959845    2.87957151323168
C          -5.25472464646051  -10.47303548740892    0.95904391038385
C          -5.84418131452497  -11.26565721953284   -0.01256427661504
S          -6.16512356519878  -10.39654474406587   -1.49844791993841
C          -6.18032654011629  -12.63790144200712    0.08208319194701
N          -5.95185652450928  -13.39037144356614    1.11836973730105
C          -6.36926883433934  -14.63617161512609    0.89954543738947
C          -6.95508043069583  -14.88804371633342   -0.35637654227119
S          -6.96846887466684  -13.45634785512194   -1.29635585601485
N          -7.36720694056743  -16.13025171968934   -0.58224478249352
C          -7.13143361958038  -16.89215727549704    0.44845101704722
S          -6.35330953486150  -16.08381119008814    1.82964942664451
C          -7.47234634286683  -18.26448028395209    0.44619649585393
C          -7.29081758432492  -19.23034670109787    1.42046925960858
C          -7.76753922408101  -20.47158067630917    0.99992544981405
C          -8.31040085065979  -20.43104885816322   -0.29897111496878
S          -8.23633631189520  -18.88066456978303   -1.00361716961040
C          -8.76012853001279  -21.72806564570005   -0.63927699889432
C          -8.51292885692777  -22.59574252750919    0.44217143025320
C          -7.87734761597519  -21.83315070863390    1.50702955644010
C          -7.47006089814214  -22.29637844520469    2.72232745069151
C          -7.64306301585882  -23.64326846666477    3.10908107380088
N          -7.79119874107443  -24.73350312087903    3.42988902216995
C          -6.85612739294807  -21.45786201172123    3.67787721995480
N          -6.36113564943671  -20.77753720011050    4.45619704389305
C          -8.94184464283459  -23.89618818236252    0.19286735424441
C          -9.47633469355168  -24.03878925940299   -1.07915329844623
S          -9.49155901120056  -22.50998686905814   -1.95753475772040
C         -10.05671755650707  -25.20906992493055   -1.62327245571613
C         -10.33349257469132  -25.48890513943845   -2.92565636795942
C         -11.38977349819275  -26.48622484004671   -3.26281054256401
O         -11.87975038858220  -27.30207247896442   -2.51977249312461
C         -11.74821905380206  -26.19866794004178   -4.66812018219351
C         -12.76595058637349  -26.71377748321900   -5.41833379095011
C         -12.94797497204325  -26.24896720611937   -6.74062791326324
C         -12.06826173108375  -25.25601741190878   -7.26269742644371
C         -12.26498432651257  -24.78749883529687   -8.57723072111728
C         -13.28630689494204  -25.28177132144260   -9.33888583224338
C         -14.15469337369428  -26.26509259449614   -8.82284705412667
C         -13.98935760117563  -26.74033355451262   -7.55199545410024
F         -15.14842263057489  -26.72941578333909   -9.59095007253286
F         -13.47345461622228  -24.83354327177285  -10.58638840485890
C         -11.01488312686722  -24.75029074503336   -6.46748144695314
C         -10.85702068395589  -25.21805909500532   -5.19096108359615
C          -9.87183830918463  -24.89627737060391   -4.16388152266789
C          -8.62179746694734  -24.38707868032947   -4.39775245307825
C          -7.61641854289447  -24.33023144671328   -3.41031042308232
N          -6.77415542562069  -24.29912786194798   -2.63120650667641
C          -8.18391393950767  -23.94249934068948   -5.66168510184519
N          -7.79157325803380  -23.55829795099617   -6.66924432867393
H          -5.24408985761323    0.95233808513910   -8.02839041609331
H          -6.94312696330406   -3.47439771118852   -9.47475622825656
H          -4.73436183344766    0.06320595777144   -5.82056070162615
H          -6.43446271734762   -4.41249847490175   -7.21595410219433
H          -4.14414000114375   -3.32582367400599   -1.46737326809845
H          -3.94534509024837   -4.94308177485732    0.27655043689198
H          -4.99362543167990  -10.85503692625575    1.92862327674439
H          -6.83436256130676  -19.02228839136671    2.37148183015822
H          -8.85334234799548  -24.72098484532239    0.87679897017136
H         -10.40958670975754  -25.93869093058669   -0.90072868874792
H         -13.42692352622875  -27.46207184661566   -5.00837271373201
H         -11.60691883534951  -24.03803839926305   -8.98843820899211
H         -14.66299263216970  -27.49254836717335   -7.17246969026295
H         -10.36705219018352  -23.99336264333965   -6.88053712584697
