107
 SCF done       -234.017521160477          0.000365859410
C         -11.86696473932687    0.88191277009173   -2.13212006047094
C         -11.99754955790121    1.70952604095692   -1.05199729423164
F         -12.60396697830601    2.89566633773238   -1.18240499338355
C         -11.49737506652237    1.32787377690360    0.20940556412035
F         -11.63991385136510    2.15828778472144    1.25024235440158
C         -10.87176491990988    0.12363015365786    0.37269199319836
C         -10.72036452666578   -0.74973703574492   -0.72163849041746
C         -11.22736356068443   -0.36660447696830   -1.99723942768142
C         -11.08874249824949   -1.22784307849489   -3.11059291855546
C         -10.45894822835117   -2.43452038382439   -2.95489297748539
C          -9.95075876876999   -2.80330146999120   -1.67804464630947
C         -10.07272511851025   -1.99697090891258   -0.58331425362089
C          -9.31064202088881   -4.12287641081479   -1.77900575175834
O          -8.77747697692023   -4.73589867689977   -0.86901544824773
C          -9.43836098363694   -4.54042038230576   -3.17892255542495
C         -10.16974279546649   -3.51281656659252   -3.89942583274486
C         -10.54844183881750   -3.52734215510530   -5.21600147125136
C         -10.30058053458128   -4.56858567537461   -6.13585600387626
N         -10.14429486026254   -5.37183092404257   -6.94134874946535
C         -11.26409999756613   -2.48346520801475   -5.84123389084093
N         -11.84387367948482   -1.67022315264021   -6.40657339863406
C          -8.92306028994689   -5.69458369251454   -3.71480044624598
C          -8.19012351104574   -6.72649820179579   -3.10923249141405
C          -7.70873564459814   -7.82024692517826   -3.84436874247162
C          -7.00172866482870   -8.71423116535856   -3.06510466072088
C          -6.94465925106303   -8.30446923304890   -1.71002677021858
S          -7.74745865548418   -6.83374479212102   -1.40607790923230
C          -6.20262994116674   -9.26646739802274   -0.99591988528878
C          -5.78336069577081  -10.28813854661832   -1.87687896331645
C          -6.26128429679928   -9.96043271141228   -3.21368072838832
C          -6.03097038710523  -10.64263515656058   -4.36969436982751
C          -5.22343518907549  -11.80009962537800   -4.43768463256488
N          -4.54570711730858  -12.71885007236022   -4.53185250196048
C          -6.55736681120764  -10.20993853124526   -5.60708637558923
N          -6.98346656146775   -9.86409235447774   -6.61324731235582
C          -5.05599331654646  -11.28920631764986   -1.24280158116193
C          -4.90868745758952  -11.02815415957563    0.11611297010594
S          -5.68683254216249   -9.52850417564032    0.60713659661286
C          -4.22813650242435  -11.80159294847228    1.07420972046364
C          -3.61666853374913  -13.05397598207317    0.91073144549296
C          -3.00333323960801  -13.54139937238250    2.11766502568393
N          -2.40430298528993  -14.73365266391792    2.15500330961137
C          -2.40706820772351  -15.43811604985754    1.04551554187535
C          -1.77503571570572  -16.78463674016412    1.10121454720498
O          -1.39379714523396  -17.28074915598764    2.13685689708710
C          -1.67040976871716  -17.47330630172583   -0.19832104803692
C          -2.22556769445006  -17.01483132146864   -1.32426409321841
C          -3.00930515348239  -15.76750341155157   -1.40066891428800
O          -3.61809394360257  -15.43959560905842   -2.39320556447055
C          -3.00735870300508  -14.95020274258035   -0.15654190105976
N          -3.59583589866111  -13.77585097932608   -0.21226535092052
C          -3.14803604784027  -12.66328961492749    3.20217207459869
S          -4.04943072587323  -11.26510205873562    2.71440737668973
C          -2.67491875468206  -12.82869926719011    4.51650476831726
C          -1.81273737281809  -13.81646525542153    4.98375062319022
C          -1.55095483481235  -13.66400874645638    6.33931406105221
C          -2.23450047450914  -12.57091125114242    6.91449076433075
S          -3.17045331825738  -11.70928422379644    5.77852173979763
C          -1.94228971956351  -12.52584104033266    8.29186565871439
C          -1.05753188633541  -13.58022855344426    8.60392343621166
C          -0.76437800088952  -14.31287127939890    7.38195285868821
C           0.11100142916705  -15.34602403697880    7.23406306352390
C           0.82875265393700  -15.87622435068595    8.32893120343536
N           1.41694046018272  -16.30446835265449    9.21450823218297
C           0.41700885541285  -15.92053444305922    5.97978707836289
N           0.72053179671061  -16.36860299302215    4.97009056680220
C          -0.70360747084974  -13.59900216424104    9.94820964703424
C          -1.34007865687524  -12.60339457568937   10.67632766952465
S          -2.35116833450250  -11.58631232879024    9.64951741293483
C          -1.15564584619697  -12.32249057613122   12.04924977675973
C          -1.93579898045649  -11.57495889149801   12.87793109421471
C          -1.34380790745839  -10.96779899478434   14.10377319841305
O          -0.28616284062648  -11.25026722828323   14.61386373690658
C          -2.29501281017397   -9.90838815372653   14.50176573290365
C          -2.16594890070835   -8.95886824356864   15.47408438866695
C          -3.20126262371993   -8.01345810007212   15.65271189682573
C          -4.35412658493896   -8.06963531454857   14.81611428841345
C          -5.37784022228712   -7.11749669774104   14.99375211241963
C          -5.26387973751834   -6.15539976800854   15.95758120939418
C          -4.12417295159902   -6.10110149700049   16.78536220174882
C          -3.11439580188303   -7.01044730425855   16.63785622765626
F          -4.03829214096327   -5.14575545932309   17.71980787192906
F          -6.23693675177518   -5.25096182726852   16.12391532780755
C          -4.46492739483588   -9.07023855097050   13.82389634610166
C          -3.45157897634074   -9.97780826949325   13.67315367400815
C          -3.30313334058225  -11.11343523603640   12.76843258398629
C          -4.33494450533217  -11.78200220135535   12.16293583700002
C          -4.17590453045029  -13.02696832157551   11.52001893057083
N          -4.08095883370772  -14.05469507949112   11.01760721079472
C          -5.67355775619346  -11.34183667385188   12.18720052063456
N          -6.77281367547872  -11.01297173112663   12.16492074705559
H         -12.25631075506115    1.18983783907405   -3.08995457325393
H         -10.49398523955543   -0.15414855694141    1.34421601773489
H         -11.48438120861250   -0.90550739480920   -4.05977256027644
H          -9.67844835168048   -2.30598910955689    0.37279730619617
H          -9.08014586931267   -5.85586551218514   -4.77446933358730
H          -7.88757385735462   -7.91984713712293   -4.90049305483936
H          -4.64339654535831  -12.17126438874862   -1.69999195394732
H          -1.12886344482825  -18.40932624776450   -0.17651058733940
H          -2.15200604830542  -17.56370124009607   -2.25336504639902
H          -1.42962524812271  -14.58695186314364    4.33845118711165
H          -0.04295504727682  -14.31289919302922   10.40612870971057
H          -0.22338263343630  -12.67702377546296   12.47879186905973
H          -1.28551269823105   -8.92682409584993   16.09755219226121
H          -6.25843239436063   -7.14760936660215   14.37126362285563
H          -2.24907515394906   -6.95480861394559   17.27955832860052
H          -5.34276666164077   -9.08751670888692   13.19757116788910
