106
 SCF done       -227.120086214337          0.000552275320
C           4.59342674043130   -0.89396827130120   -2.67014242451467
C           5.90250260924471   -1.28008845993503   -2.62277114549047
F           6.87861274972612   -0.37012544266823   -2.75525751533729
C           6.24760151763218   -2.63518802255304   -2.44762201758328
F           7.54068502793062   -2.98174957406902   -2.44887549290586
C           5.27814878493684   -3.58416669767715   -2.28468126915621
C           3.91933285994527   -3.21386922940505   -2.30613776261452
C           3.56910953024284   -1.85122227819087   -2.53083100452607
C           2.21144630844373   -1.46773724043978   -2.61815327421226
C           1.23524529291943   -2.41168587310155   -2.44109482198506
C           1.59519264366240   -3.75583028009330   -2.14047022440659
C           2.89753286689121   -4.16510867564088   -2.09213464141340
C           0.36970133181326   -4.53657682076417   -1.91300181180144
O           0.30613693584279   -5.70739211773199   -1.56650878140374
C          -0.75136227098487   -3.63428039104224   -2.18257013901408
C          -0.22067322761975   -2.32459150396448   -2.51851378600578
C          -0.92159420292679   -1.19834078571270   -2.85811994322370
C          -2.31799815369533   -1.13059371796295   -3.04832144891427
N          -3.44315181513604   -1.00918330482290   -3.24295141508337
C          -0.33222996570749    0.07163357837533   -3.05113483872690
N           0.07543379411905    1.13716378009089   -3.16855367489105
C          -2.07753428723119   -3.98385541436668   -2.14018038394726
C          -2.69036622436204   -5.18626433137963   -1.75992960999063
C          -4.07662837309703   -5.36152981210449   -1.84820243812627
C          -4.48366536047261   -6.60231952370488   -1.40035212650163
C          -3.40213745718803   -7.39269576243328   -0.94460515469286
S          -1.89426755910501   -6.61601060925991   -1.09558773544858
C          -3.92032679328053   -8.65462620850542   -0.55241874049028
C          -5.31295292649602   -8.65372928595874   -0.73758477784684
C          -5.71379935979536   -7.37291859695585   -1.28792684460503
C          -6.96141009285602   -6.99996349964962   -1.69127934449865
C          -8.07468305314137   -7.85900139459565   -1.57669932310078
N          -8.97969365644173   -8.55836066034399   -1.49900043761076
C          -7.21361834554222   -5.74505982694636   -2.28579274152486
N          -7.42024083515420   -4.73346260815966   -2.78345221306791
C          -5.90034361765247   -9.89021212054683   -0.44628335295475
C          -4.96225760421708  -10.82725692800955   -0.08152273086550
S          -3.33975008730395  -10.17081278464894   -0.01572239831713
C          -5.17476907642383  -12.24606585713255    0.07273190921161
C          -4.61259217098070  -13.08388121231491    0.99829941855994
O          -5.04702440499297  -14.33896766275512    0.83512621937338
C          -5.89622228554069  -14.34132852323908   -0.19141405746517
C          -6.02087686450835  -13.08962465374121   -0.73402317294692
C          -6.86904785831212  -12.76766998779298   -1.90110626780624
O          -7.92161366980683  -13.33223819867115   -2.10346411257736
C          -6.37774265846373  -11.69209152577708   -2.77540516849750
C          -7.15163731091208  -10.73671320758245   -3.39100379474263
C          -6.40068922100882   -9.70501119246402   -3.96161001543687
C          -5.04175728246271   -9.87806840428185   -3.80601247764307
S          -4.69100109852944  -11.38325210075900   -3.00932917715416
C          -3.98363489271277   -8.97210808210743   -4.08808598255881
C          -2.65846297969708   -9.13184003917269   -3.72796518183971
C          -1.89468599810641   -8.00965222507069   -4.03925217947349
C          -2.64448922138834   -6.98758699427972   -4.64777187168151
S          -4.29257712214728   -7.41132047078733   -4.82794654430281
C          -1.78100330221974   -5.89741491178357   -4.92420297102194
C          -0.48130297503482   -6.24600056012954   -4.50019871350376
C          -0.51779748032385   -7.56419405232823   -3.89612793205873
C           0.50135313206357   -8.20479058548275   -3.25807993682027
C           1.79384231843977   -7.64696216034089   -3.18101445461618
N           2.84652738978590   -7.19463860597520   -3.13715450364383
C           0.30221282125807   -9.43708314465757   -2.60070278842347
N           0.11601616715700  -10.42639096294061   -2.05236656690766
C           0.45464931330254   -5.25454306407269   -4.74656392504915
C          -0.10829705379447   -4.13865235500173   -5.35387721242716
S          -1.84486041130546   -4.33125442602043   -5.58686465429005
C           0.50553700125168   -2.92862101112343   -5.73041971119143
C           1.82778781431997   -2.63039243938562   -5.88588031023413
C           2.21707663531678   -1.19095623542995   -5.90992786456794
O           1.45967094813904   -0.24922469119614   -5.93626787356170
C           3.68855227515311   -1.17769952974140   -5.83815329301005
C           4.53710816616410   -0.10854622135150   -5.80417210695629
C           5.92909829209278   -0.33693276421010   -5.72667214437759
C           6.41396814039468   -1.67637744175735   -5.66167803130127
C           7.80122201092353   -1.89968322534435   -5.55529553065038
C           8.66755969342244   -0.84273524859461   -5.52315156612306
C           8.18753418208238    0.48100591497122   -5.59752275942214
C           6.84711614756313    0.73006933566421   -5.69678458855171
F           9.05884986109191    1.49486915395849   -5.57495637547984
F           9.98347486240338   -1.05491029916124   -5.43063303824138
C           5.51111138520925   -2.76347172663325   -5.71339172083779
C           4.16832896293826   -2.51844865905118   -5.82062429258423
C           3.03276394179208   -3.42115523211858   -6.00269089550804
C           3.13929037896113   -4.70058843199768   -6.48633777999795
C           2.05450193566341   -5.45439185636497   -6.97308568473644
N           1.20375205122744   -6.08998083220512   -7.40997473275924
C           4.36456342030377   -5.38011365699933   -6.65284066114886
N           5.32846680870927   -5.98590738045626   -6.79478756561371
H           4.34489971950784    0.14603266080239   -2.81065722976355
H           5.55375978006685   -4.61695891699466   -2.13976596337396
H           1.97976874684474   -0.43545678321835   -2.82333379014175
H           3.14483285724277   -5.19858096002536   -1.90021677096722
H          -2.79277480555195   -3.22818496728009   -2.44178304981413
H          -4.72562118677671   -4.59517547389381   -2.23375379842755
H          -6.95105050430445  -10.10660965578572   -0.51031201751624
H          -3.92760663346973  -12.88779992508135    1.79947411921337
H          -6.34096789905642  -15.27137913542171   -0.48568177197473
H          -8.22605972583044  -10.76200593626404   -3.36435952688197
H          -6.82782515820222   -8.84507934842956   -4.44730780716532
H          -2.28776922605138  -10.02384708238663   -3.25598423533329
H           1.49093765227761   -5.31337446957524   -4.46940453257930
H          -0.15977578324301   -2.07984168113872   -5.86668108093410
H           4.15041457556631    0.89851487946354   -5.84311353833419
H           8.18572310462744   -2.90599640898089   -5.49633293291906
H           6.49617893399585    1.74877109127822   -5.74619415481147
H           5.90702111194317   -3.76532954695374   -5.66774948597394
