102
 SCF done       -220.850810478770          0.000907863194
C          -7.45222812195231    2.37301079068657   -3.69179777931329
C          -7.90881297711802    2.60813293216744   -4.95856102946956
F          -8.13715411604981    3.86123511740582   -5.36981062052527
C          -8.14563152832744    1.53879170412851   -5.84605568612400
F          -8.59383772556510    1.79880752914451   -7.08064527589754
C          -7.92245581862747    0.24843980474850   -5.45404890204537
C          -7.45363796308078   -0.02601410342804   -4.15469759346323
C          -7.21316241578169    1.05415345177408   -3.25648213044892
C          -6.74423471239460    0.80333978185499   -1.94621441944966
C          -6.52702863154887   -0.48823809447416   -1.54478819046639
C          -6.77597488957610   -1.56019572237289   -2.44762291950746
C          -7.22261296575585   -1.35008497596949   -3.72049423230199
C          -6.49042538631186   -2.83512161793673   -1.77121006327796
O          -6.57121344251952   -3.94865648736144   -2.25990352057882
C          -6.11036193600078   -2.49360234121988   -0.39482804491765
C          -6.06225084419690   -1.04658941956777   -0.27699900339556
C          -5.62070930807283   -0.31730513906506    0.79476420983083
C          -5.10533190806201   -0.85409176878569    1.99420532809634
N          -4.66390087840595   -1.21567012586783    2.99048786990223
C          -5.59173104735269    1.09357815967254    0.82902822251803
N          -5.54616278513578    2.23684825762394    0.91733802383667
C          -5.93771680692120   -3.39069770510156    0.62679291958469
C          -5.99360847874931   -4.79428164645366    0.61991201107226
C          -5.91071110082607   -5.53747634752505    1.80441295174376
C          -6.00063115143906   -6.89738780349234    1.58093652178646
C          -6.12348102387431   -7.20744447220937    0.20400368900227
S          -6.16823310533130   -5.83072067961565   -0.79522717275365
C          -6.21795501822607   -8.61530866185111    0.07479685357162
C          -6.17053337821112   -9.18846516918048    1.36264267184110
C          -6.02027191979715   -8.13192989186586    2.34927943440876
C          -5.92655250515550   -8.27511628198263    3.70199142583559
C          -5.96487584378033   -9.54299783896986    4.31993524532050
N          -5.99641109848963  -10.57504776523576    4.81861912447091
C          -5.79188175461492   -7.17007482124749    4.56946274654714
N          -5.68232537676719   -6.27860764928093    5.28157553741867
C          -6.28893919922430  -10.56897937463281    1.33293405616442
C          -6.41604335726503  -11.06187151352972    0.03573552107483
S          -6.35374447147465   -9.78011568516148   -1.16302405828837
C          -6.61744726894428  -12.43927217996059   -0.24808502238141
C          -6.91743161533463  -13.14266559277579   -1.41945331387583
N          -6.99475100871741  -12.50435090410158   -2.67969326855201
O          -6.30098161950779  -11.51112781773775   -2.84698322480832
O          -7.74006085379763  -12.94869711476868   -3.52668725724930
C          -7.14040182856294  -14.53618705531357   -1.23497963438258
C          -7.45573878638367  -15.50924254546928   -2.31815797825435
C          -7.00756744305253  -14.89719243315731    0.08973216850272
S          -6.63369846407944  -13.52857838018404    1.10188654250985
C          -7.18055186841760  -16.17140654034852    0.71010854293821
C          -7.06259102521014  -17.43654682289191    0.16808847459493
C          -7.34704108877340  -18.43289049471833    1.10487750714910
C          -7.68125884164339  -17.91924788856280    2.36786307856147
S          -7.63488256243745  -16.21522071467248    2.40874100450811
C          -7.98315106027512  -19.00256665363767    3.23014971011317
C          -7.82502212127128  -20.20546856936928    2.51524612055721
C          -7.41673743849309  -19.88586715774604    1.15652501213846
C          -7.16065151754723  -20.75760183996042    0.14015683322285
C          -7.24835121812127  -22.15651686360846    0.30682720006863
N          -7.31077457132015  -23.29311016249132    0.44011973693795
C          -6.78258941865242  -20.30947189479893   -1.14355434695216
N          -6.47479402169715  -19.93468729257096   -2.18234977541678
C          -8.11216529672858  -21.32895909701673    3.28409775062893
C          -8.53558077626581  -20.99652165457927    4.56139287936508
S          -8.50364138716037  -19.25394760181628    4.82840928386441
C          -8.88803083436026  -21.90856146415949    5.58457461787459
C          -9.63355277564638  -21.69751811203069    6.70225096410340
C          -9.50225458158114  -22.62693314068417    7.86093557678129
O          -8.96876183042499  -23.71046861403069    7.86118828039215
C         -10.10218879231408  -21.90444619564187    9.00138204309661
C         -10.13224770901802  -22.25626929964458   10.32013650039864
C         -10.74587432183244  -21.38622789574903   11.24922523315595
C         -11.31205059447687  -20.16001535356838   10.79292062078968
C         -11.91472754109248  -19.29343732953519   11.72681755301805
C         -11.95780934605013  -19.63005484213113   13.05062833740437
C         -11.40020252193301  -20.84419880430722   13.50062488241900
C         -10.80663099526513  -21.70461436385373   12.61999653931030
F         -11.45634985794193  -21.14761243897874   14.80352700070225
F         -12.53199258256606  -18.80661675664551   13.93607321975741
C         -11.27322405283507  -19.82555884495285    9.42014414916182
C         -10.68376192201916  -20.68969429371466    8.53706242488617
C         -10.53836040452094  -20.63369080484964    7.08564432895474
C         -11.33727213651957  -19.90778987497274    6.24160750689913
C         -11.36243408651850  -20.09549879506355    4.84431817620277
N         -11.43225723459689  -20.25096560211120    3.70899721973963
C         -12.28215062221263  -18.95851444249289    6.68156281155317
N         -13.05030234108480  -18.16396053131768    6.99042992292549
H          -7.27550718640012    3.20310474108947   -3.02576705179392
H          -8.10889142353955   -0.55887759209410   -6.14483310945837
H          -6.57590497327802    1.64271090503122   -1.29138868888966
H          -7.40107395232434   -2.18227233985826   -4.38432032544054
H          -5.75992327804446   -2.98124686050672    1.61422550783489
H          -5.79832088663123   -5.07126076844541    2.76736990812225
H          -6.29558160152501  -11.20418988528327    2.20096161056798
H          -7.84079464227502  -15.00289334467777   -3.19718942171255
H          -8.19800437451153  -16.22512115226970   -1.97200830545273
H          -6.55783580940685  -16.05779065378222   -2.60371284739279
H          -6.75403095862988  -17.62753563423782   -0.84122712526614
H          -8.06139180027880  -22.34599960252873    2.93938894635649
H          -8.44586042577997  -22.89723571887707    5.50125160427099
H          -9.69479973117539  -23.18598464062084   10.65056808283836
H         -12.34988570789505  -18.36248297008949   11.39851741442160
H         -10.38454059368457  -22.62954815028896   12.98055511435287
H         -11.70174747872335  -18.88884768269285    9.10068903059616
