105
 SCF done       -219.935956530672          0.000517279196
C         -16.72609419975204    2.54216639451641   14.55676607064844
C         -17.14196070040088    2.57645041064258   15.85872998670095
F         -16.88260786536247    3.64612709448811   16.62071406100288
C         -17.84430724292251    1.49061701395313   16.41779680304813
F         -18.24708951526508    1.55750986061146   17.69293383586244
C         -18.11038151152965    0.37837755608650   15.66857547668909
C         -17.69172685753384    0.31250241121593   14.32617195945180
C         -16.99303020167740    1.41414487662796   13.75617462818792
C         -16.57408604368412    1.37119450839917   12.40503638382624
C         -16.82502860641933    0.25467515535997   11.65396495666285
C         -17.52325371926468   -0.84055290301774   12.23464561646960
C         -17.95243820508335   -0.82526655935876   13.52872195085792
C         -17.67667163654517   -1.90835813610950   11.22253712691372
O         -18.20836217811800   -2.98849750799314   11.38792415363297
C         -17.03709168652998   -1.38770130094099    9.99844668263622
C         -16.51241131406471   -0.08392646620377   10.26227680765666
C         -15.80542523384939    0.72606076883605    9.39253355394038
C         -15.51387990342599    0.46593630763573    8.03891496399872
N         -15.24339428846765    0.36612707806751    6.92562204661812
C         -15.22246459918420    1.93867892117659    9.78296474992686
N         -14.65126715104886    2.89504713607763   10.07597311912963
C         -16.93214237640606   -2.08713789102492    8.80446844727707
C         -17.42996522129850   -3.35360095288356    8.55633353214968
C         -17.24055605898362   -3.98246971785543    7.32721687311682
C         -17.66440275983769   -5.25681699603393    6.91899046056551
C         -17.28676161820143   -5.58711041742275    5.63669003937090
C         -16.55582418119566   -4.58080556020662    4.99655375857156
S         -16.35583364223266   -3.20207163721650    6.03974996104226
C         -15.97261113552750   -4.52937950598421    3.72226362857118
C         -15.90825814911574   -5.47571067610670    2.69476149687165
C         -15.17997709156495   -5.03321509722249    1.61556149125232
C         -14.64710355536045   -3.73674472863689    1.75727734813870
S         -15.14052477867297   -3.06631633785565    3.28526207309110
C         -13.78528035004836   -3.14807908832944    0.83283124310075
C         -13.07179647306899   -1.95893404603819    0.89150400421952
C         -12.09343443142417   -1.67049751097128   -0.12761150337654
C         -11.18601520218004   -0.57701846092211   -0.03303079953548
N         -10.28210691626156   -0.37937730645206   -1.00562958981384
C         -10.25744885862933   -1.18672472889099   -2.02538093202387
C         -11.14976728188982   -2.27059179350671   -2.11568206562184
N         -12.03052170816674   -2.49507311439947   -1.18488934626335
F         -11.12606166841107   -3.10928492091666   -3.15133428961186
F          -9.35209501446115   -0.94755428190794   -2.97384765498058
C         -11.16135459196079    0.31664963068917    1.09786541754950
C         -12.23813872587808    0.12865221551745    2.01295139622526
C         -13.16619266980177   -0.96108604898692    1.90484559565115
N         -14.09909573756132   -0.89411157553322    2.84305810034004
S         -13.85824534133656    0.38649621484362    3.79124241392844
N         -12.54475632833967    0.92495250587194    3.02723014143788
C         -10.13101424613433    1.23921996314846    1.21418846035164
C          -9.75539798132006    2.04135224947421    2.29071654348009
C          -8.60901851165625    2.85972232519736    2.29817040167170
C          -8.33285570443850    3.44650342732431    3.51034411579709
C          -9.25376177009806    3.09214562370359    4.50194930447734
S         -10.50906608315538    2.07461764325642    3.85879427823192
C          -9.29678580570828    3.40253300657161    5.86842659320400
C          -8.48882723051722    4.24260812836017    6.64288756539096
C          -8.84222688924660    4.26681515778548    7.97286731796144
C          -9.92627152194054    3.43297295664837    8.28879989289170
S         -10.51429326574914    2.63973227743259    6.85108820365785
C         -10.51286986818651    3.20431180745197    9.53243204632670
C         -11.52095181593118    2.27281000893007    9.69039525571639
C         -12.25093574252286    1.90513980460838   10.80852407246926
C         -12.94590786817594    0.60428790139514   10.77217592073651
O         -13.13075370003051   -0.10248012077286    9.79914834724268
C         -13.40872579454558    0.35251159865952   12.14852223848529
C         -14.03734659264738   -0.74763617308855   12.65270984854965
C         -14.40837110634803   -0.75981642276583   14.01534577718365
C         -14.10408627084980    0.36930731105870   14.82729597617869
C         -14.47696058027726    0.35355055487028   16.18545015130917
C         -15.13404666416531   -0.72593284588031   16.70637573162156
C         -15.44168516916968   -1.83749334366948   15.89834263803419
C         -15.08282136151065   -1.85842037855664   14.58021108122793
F         -16.10278784125373   -2.87411123420300   16.43358121621901
F         -15.50135550050766   -0.73438425307207   17.99435398115503
C         -13.44895192298796    1.49510605100177   14.27281555493225
C         -13.11631223815464    1.49320340245893   12.94590648422793
C         -12.48761212078481    2.50712171404030   12.09076919865621
C         -12.37539325078866    3.83597987271392   12.42235521298598
C         -11.96455588354677    4.86453883114555   11.55200140903316
N         -11.65346185092631    5.76430245575107   10.91000210654999
C         -12.77079485729911    4.35964640445508   13.66926008071568
N         -13.07569007951148    4.84084799254348   14.66660658771155
H         -16.19006354836342    3.38507303000360   14.14870017319221
H         -18.64513131385462   -0.44747338214059   16.11160791088577
H         -16.06441660375295    2.23159257216491   12.00315875976327
H         -18.48538649823140   -1.66878380006046   13.94092395234387
H         -16.40355290367342   -1.60206804734300    7.99265008373241
H         -17.97224635319928   -3.87935761062994    9.32886791021530
H         -18.22882481794513   -5.90158679758651    7.56894019050666
H         -17.52037564456073   -6.52205767983538    5.15943886810059
H         -16.37208251541287   -6.44404335455912    2.75583319636138
H         -15.00110896322019   -5.62011481109814    0.73161693913119
H         -13.58008192307086   -3.74398507616094   -0.04868778413772
H          -9.47277678219044    1.28219677752217    0.35462074625781
H          -8.00393674456640    2.98687207218491    1.41763417186821
H          -7.49204476501046    4.09137434756491    3.69320779792822
H          -7.67783378223652    4.80987697662756    6.22245674893211
H          -8.34611133719529    4.85863079164900    8.72118798530278
H         -10.12255695110231    3.75751938929110   10.37281702730628
H         -11.74784869859901    1.65496417198952    8.82396378608409
H         -14.24975734500676   -1.59839523940277   12.02239189502715
H         -14.25097238799095    1.19686935044659   16.81928167179813
H         -15.32489175981963   -2.71679995464514   13.97326461485682
H         -13.22814674272594    2.32879178444405   14.91959358497259
