97
 SCF done       -215.668184450206          0.000463595402
C          -5.82412998647180    0.02292731895662   -8.49822799166637
C          -6.15532092722502   -0.20806522152071   -9.80416371044776
F          -6.16822400718115    0.80069949068565  -10.68386080398491
C          -6.48679583419584   -1.50644123710375  -10.24165488722848
F          -6.80898492149785   -1.70330888848368  -11.52645135964807
C          -6.48040814345604   -2.55670396962321   -9.36689422268221
C          -6.14196136626860   -2.35062632395937   -8.01549806320368
C          -5.80905576097361   -1.03818601527227   -7.57091288570263
C          -5.46863662224499   -0.80609391305993   -6.21803077438078
C          -5.45920374517212   -1.85441060938469   -5.33607244233086
C          -5.78961689994026   -3.16131791246667   -5.79196818788239
C          -6.12425466584372   -3.41754978695984   -7.09040966703556
C          -5.70074034226144   -4.10002058204085   -4.66362789338116
O          -5.90995451894710   -5.30110089116896   -4.70626090560848
C          -5.31764603211460   -3.30525287542892   -3.49243626921392
C          -5.15440069156307   -1.92282606790739   -3.90769371822287
C          -4.77013887432161   -0.85993523612911   -3.13357111521234
C          -4.45064928584374   -0.91046414857202   -1.75978555122799
N          -4.16870360094035   -0.86878787227919   -0.64745958992300
C          -4.63027343892905    0.45855688952921   -3.61828725850950
N          -4.49714371084894    1.54938019182485   -3.94915711964053
C          -5.16448576525095   -3.79128316473746   -2.21837615550089
C          -5.28000190190959   -5.10052923018001   -1.72659446193143
C          -5.08716758525918   -5.39739925319007   -0.37016494020153
C          -5.22066403097294   -6.74494672020147   -0.09837202213697
C          -5.51715766408072   -7.49462640035660   -1.26175812007591
S          -5.64211901988950   -6.54628426938309   -2.66931514989770
C          -5.61767896129223   -8.85513142273593   -0.88777731867755
C          -5.38811266341665   -8.97561212563846    0.49567213663421
C          -5.13420137694446   -7.65015304574931    1.03960648476661
C          -4.87056199798782   -7.32386236276516    2.33602548715922
C          -4.80186789111698   -8.29161196956177    3.36187813196978
N          -4.74104095406411   -9.06945408107618    4.20135335531216
C          -4.64917345199319   -5.99032983273824    2.74422826530735
N          -4.47073853016745   -4.91040442488681    3.08382443250854
C          -5.45770915307118  -10.29336718118672    0.94750120596275
C          -5.73541170345773  -11.17181726146771   -0.08656116406272
S          -5.91888088723609  -10.35985928203013   -1.63254470906395
C          -5.86416894376646  -12.58513403821553   -0.03035417662019
C          -5.76562312670123  -13.42925427137011    1.06115765938596
F          -5.53333930942059  -12.99767522591512    2.30201518691138
C          -5.92843204712918  -14.78605776323875    0.74580283247934
F          -5.86201159236806  -15.75481756351613    1.66088200626823
C          -6.15686664630590  -15.02499563022791   -0.59749711419503
S          -6.17109761547318  -13.51864784024228   -1.46373386614571
C          -6.34402195038379  -16.26263338290371   -1.26858581479471
C          -6.34001109535778  -17.53945135771015   -0.73218087353696
C          -6.53095035713705  -18.50993621475597   -1.71529712697424
C          -6.68528023956534  -17.96478042153399   -3.00348662057764
S          -6.59721147959576  -16.26171772366651   -3.00589679142811
C          -6.86234602187456  -19.02077822972823   -3.92984689072685
C          -6.80928181173057  -20.24067028176967   -3.22571886043445
C          -6.62071905531879  -19.95940853686145   -1.81168414400218
C          -6.58471415888064  -20.87364271061229   -0.80137989650578
C          -6.71827190350372  -22.25462752023816   -1.06288036132180
N          -6.82026332881441  -23.37260243926379   -1.29569242011639
C          -6.41878983908635  -20.50857994551614    0.55196548889646
N          -6.27856461954696  -20.22000252755059    1.65206206089042
C          -6.98545335099011  -21.34589882282127   -4.04685929634768
C          -7.18779659137655  -20.98808347057250   -5.37328905036645
S          -7.11694449542504  -19.24278129159118   -5.59595649982550
C          -7.38169308999602  -21.80730362807472   -6.50493508625443
C          -7.71991794941903  -23.12520693199849   -6.57662202941220
C          -7.44837525702238  -23.84973681002788   -7.85274240584815
O          -7.16585646107322  -23.34972043000855   -8.91616733976071
C          -7.54242647150187  -25.28185446411121   -7.51351289824619
C          -7.25906841528554  -26.36809456624317   -8.29035319610134
C          -7.38130448780094  -27.66039270887742   -7.73284199853627
C          -7.78634995813642  -27.80066032463391   -6.37327518706099
C          -7.89112927781837  -29.09243497179446   -5.81960301872341
C          -7.61260942108144  -30.19275335099649   -6.58099531207282
C          -7.21649044650349  -30.05289215485691   -7.92669794153631
C          -7.10261692175966  -28.81373397682959   -8.49182746149217
F          -6.94998894619387  -31.14873301888398   -8.64897854300860
F          -7.71342294445837  -31.41924532854614   -6.05420529121099
C          -8.08307823285486  -26.65730253837194   -5.59617079067236
C          -7.97315095069622  -25.41593405483564   -6.16274911829683
C          -8.23988993117593  -24.08309970964613   -5.62428389007022
C          -9.06091906711776  -23.82520311672610   -4.55747216338432
C          -9.49856609493559  -22.53657080948950   -4.19681463520033
N          -9.89141637142025  -21.50346012225436   -3.88577979596324
C          -9.64422730954842  -24.83111980947147   -3.75733150339710
N         -10.14629483878130  -25.61110550611534   -3.08261521352436
H          -5.57330140808313    1.02291444384589   -8.18042976386583
H          -6.73611801808994   -3.54446705563811   -9.71714968666247
H          -5.22483156960067    0.19936586750285   -5.91637727270036
H          -6.37123871344016   -4.41972332063930   -7.40624991673672
H          -4.91285756796711   -3.07366138281080   -1.44683422456993
H          -4.85705035516383   -4.63592872935543    0.35409343280936
H          -5.31237140786932  -10.60703990602361    1.96491717757362
H          -6.20170528649357  -17.73957810233910    0.31450583479033
H          -6.92323230953641  -22.36709532831569   -3.71878005947812
H          -7.16942854863566  -21.34663626670952   -7.46564570502209
H          -6.94374233686927  -26.24323670794878   -9.31501608043252
H          -8.19667897305683  -29.21745495630729   -4.79258379294583
H          -6.79747996501803  -28.72329618920086   -9.52257248183982
H          -8.37760419740417  -26.79089712526519   -4.56750910704075
