94
 SCF done       -199.685979875505          0.000523269594
C          -6.07087292018022    2.57114014647672    0.92459933691331
C          -7.11816580399891    3.09064987177327    0.21624457200151
F          -7.35181776918960    4.40883110075511    0.22960893352098
C          -7.96406311067547    2.24963769219424   -0.53459568695593
F          -8.98298246893401    2.78596604798974   -1.21867171955284
C          -7.75104634171178    0.89983195891252   -0.56617439328946
C          -6.68154765884790    0.33457292124078    0.15483485817667
C          -5.82461947485230    1.18363641733670    0.91353245054193
C          -4.74452066638504    0.63894715019440    1.64625214302777
C          -4.53070415260418   -0.71386665181643    1.62495247790590
C          -5.39650777712631   -1.55328168388119    0.86925920971345
C          -6.44324086051701   -1.05762004534078    0.14686763469736
C          -4.96935132612790   -2.95200264360056    1.02940811709044
O          -5.48021633830498   -3.92753385315475    0.50479247529842
C          -3.82831017971678   -2.93188962181769    1.94964334089386
C          -3.52131844195105   -1.55018826659352    2.27206904223396
C          -2.46451104008244   -1.08330111428335    3.00853261296630
C          -1.45180083282141   -1.87727371671666    3.58768878106207
N          -0.58743612017210   -2.45368955495456    4.07661633298262
C          -2.22845039439255    0.28367871731852    3.26835212008353
N          -1.98354106695506    1.37730200216159    3.51581827229942
C          -3.21112789977586   -4.03985489095910    2.47454536039579
C          -3.44271234137438   -5.40288376257102    2.23924387212512
C          -2.75010299428880   -6.40015086266134    2.93945057969271
C          -3.12494000962020   -7.67300883605898    2.55825248248266
C          -4.10722177990436   -7.65735550216661    1.53679398675043
S          -4.57936805050240   -6.08831838262597    1.07624450223734
C          -4.42340314844624   -8.99779908464245    1.21611850554358
C          -3.65624897143519   -9.85960914281255    2.02569540007657
C          -2.81489282580516   -9.05327812420267    2.89663412344070
C          -1.93308091992841   -9.50313919415968    3.83436084031688
C          -1.73436925073419  -10.88023375225217    4.06844354694397
N          -1.58053825382549  -12.00111115469269    4.25498074051948
C          -1.17007068887721   -8.62702270218591    4.63571793778970
N          -0.55171848935092   -7.92091000084062    5.29348887715121
C          -3.90602643943199  -11.20577831359310    1.77896312612345
C          -4.85573459205962  -11.38546908323839    0.78264141509536
S          -5.44178611412198   -9.85412639866463    0.14923348169210
C          -5.38029869520393  -12.58505578538152    0.23998193987861
C          -5.06557222933782  -13.83325737772072    0.67001903235022
C          -5.58764557122680  -15.02736841020719    0.11243789416163
C          -6.44134724650342  -15.19357951217976   -0.96979097716747
C          -6.72272112928384  -16.53328920799181   -1.21357036980701
C          -6.08330327325891  -17.40568843104130   -0.31040537028666
S          -5.13351457409981  -16.56554909559897    0.83054229382048
C          -6.42660476704931  -18.73700120507221   -0.64665953901023
C          -7.28444294958695  -18.70557503976726   -1.76728075307690
C          -7.49029821807253  -17.32457847637952   -2.16347146043314
C          -8.22002170087151  -16.87634196373846   -3.22501916642164
C          -8.89105821926581  -17.77099616566220   -4.08543837100559
N          -9.43355495737464  -18.51155742860977   -4.77239865847166
C          -8.34460120878065  -15.50296345643122   -3.52114225261606
N          -8.44605062491001  -14.38380749886933   -3.74840166027403
C          -7.65348425996994  -19.97032326223006   -2.20211749834112
C          -7.08910828900785  -20.97730259925924   -1.43050739575510
S          -6.10830998987180  -20.32266751058732   -0.12132368562922
C          -7.24238079622272  -22.37443759203345   -1.54276313849656
C          -7.67727352963843  -23.10835993358204   -2.60661053191949
C          -8.16371187250341  -24.49563370336523   -2.35817614143662
O          -8.03012822770702  -25.13318054338007   -1.33980765864529
C          -8.87857812066257  -24.88383951806085   -3.58924225441590
C          -9.60763018939352  -26.01044245505323   -3.83984947288307
C         -10.23539261213690  -26.15591278814821   -5.09727294006477
C         -10.10336494401561  -25.12150413418065   -6.06902002885673
C         -10.73838776537854  -25.26966156431265   -7.31843670885779
C         -11.46583544910859  -26.39379558448204   -7.59214460608258
C         -11.59441450584468  -27.41686935239817   -6.63101874613905
C         -10.99311001213081  -27.30156736944419   -5.40909380509834
F         -12.31456619860331  -28.50703967729255   -6.92628659314425
F         -12.06587279046467  -26.53495362852653   -8.78076179317985
C          -9.33822010088593  -23.96775738018621   -5.78225991291981
C          -8.72524224345850  -23.85647944267820   -4.56320356009169
C          -7.85592697947584  -22.81802797841953   -4.01274195917393
C          -7.14997219657350  -21.91659789078905   -4.76711077836148
C          -6.13729635409556  -21.08150152068166   -4.25813846543902
N          -5.28858945914081  -20.40033243139716   -3.89191822665027
C          -7.28553534887786  -21.78588193587806   -6.16558625462839
N          -7.35184971096635  -21.64006459779584   -7.30156912465352
H          -5.43276832552605    3.22939801059683    1.49327661879654
H          -8.40751293810645    0.26944455248101   -1.14529830036634
H          -4.11748561042509    1.30953778304667    2.21080060200628
H          -7.08190608858170   -1.71858439828679   -0.41909234007874
H          -2.43057058737399   -3.86537600748832    3.20544127264841
H          -2.01410890181091   -6.16647769587950    3.68849437167778
H          -3.42369429480038  -12.01932201163331    2.28787973031828
H          -6.08430114166518  -12.46309532938772   -0.57090003216144
H          -4.37709033976192  -13.95785605817579    1.49364909771022
H          -6.82807479820296  -14.37584825228108   -1.54879403747752
H          -8.33421631176163  -20.16481186048159   -3.01078002951762
H          -7.05155988436170  -22.95172034460784   -0.64277854033067
H          -9.70395621406339  -26.78043886272653   -3.08967810714603
H         -10.64701122860082  -24.49761271266277   -8.06633595524219
H         -11.10143579064912  -28.09329573992733   -4.68444213778764
H          -9.26458271818773  -23.19513530993011   -6.53073320392793
