104
 SCF done       -226.488184917504          0.000992606878
C           6.11537215852911   -6.86225900131314   -5.69788932744553
C           6.64400157035847   -7.63506747593399   -6.69345640561900
F           7.65935090456691   -7.17856853238597   -7.43388245595942
C           6.12427754981498   -8.91838346118378   -6.95634278654871
F           6.66356322885696   -9.65929124825023   -7.93316827061360
C           5.07648938466492   -9.40755622278887   -6.22784612174775
C           4.50447976523872   -8.63129744438261   -5.20204697984009
C           5.03885400972286   -7.33936840009809   -4.92475681474653
C           4.49151811161488   -6.54931151720265   -3.88680510393272
C           3.43207140908740   -7.02674249701519   -3.16085907467861
C           2.89315473346611   -8.31054585160645   -3.45885589723587
C           3.41013896824970   -9.10407733838960   -4.44302558799687
C           1.74011397025993   -8.56357082305138   -2.57820526295600
O           1.05413306556626   -9.57422508191355   -2.56511139340449
C           1.61667903619003   -7.38814376849785   -1.71585037322004
C           2.65336559075471   -6.43900390197247   -2.07202314609126
C           2.85973630869461   -5.19554054131614   -1.53626281581363
C           2.06357988813091   -4.58529328969638   -0.54331709445036
N           1.45356316028907   -4.00594567995800    0.23819304085601
C           3.90116417184330   -4.32962800761448   -1.93242205292762
N           4.73129810142180   -3.58557230382030   -2.20600517190361
C           0.74225982451831   -7.26708837045926   -0.66534631179578
C          -0.33889871889261   -8.07961057304273   -0.29682577777639
C          -1.12665841250099   -7.80529446502047    0.82690570162943
C          -2.20826685631571   -8.65849356275636    0.93544875535083
C          -2.26470369501807   -9.58894270028382   -0.12739451305972
S          -0.95137052846288   -9.46334208579169   -1.20106670566497
C          -3.44389811109984  -10.36498303115026    0.03760428035310
C          -4.10969351889876   -9.94520799468385    1.19610040604045
C          -3.35253837188055   -8.87026919745978    1.81181565566073
C          -3.65262482525284   -8.20668523016224    2.96434130371621
C          -4.78402505369260   -8.53571305924853    3.74134752602079
N          -5.69867564793044   -8.81450283610331    4.37423387849063
C          -2.85097999227006   -7.15804047558076    3.46472665315179
N          -2.21159348059286   -6.29992633729397    3.87541815696696
C          -5.31345364744753  -10.63604911060476    1.40945384319494
C          -5.55081556257811  -11.55120751228241    0.42224491328232
S          -4.30314887888118  -11.58595778561890   -0.79696319725608
C          -6.75342646764679  -12.45250420777263    0.32230298185813
C          -7.08493584218518  -12.98599891189361    1.68244822440331
N          -7.70044323664376  -12.28259456662155    2.60881044767232
S          -7.84755703603390  -13.17468024274558    3.95262127216304
N          -7.12306463724058  -14.50338558039450    3.37299114227280
C          -6.75018403517777  -14.28654719494197    2.13003549060853
C          -6.03155631999239  -15.30584836116494    1.29550514396496
C          -6.17796080058834  -14.91936139664729   -0.14084731518592
C          -6.50124803173467  -13.61246708855322   -0.58578137064603
N          -6.55232330233253  -13.52865880979507   -1.89776726026465
S          -6.21562454103222  -14.97709496865765   -2.54082548121040
N          -5.99827852593155  -15.75875268130200   -1.13788323084260
C          -4.58600788404675  -15.33268688861864    1.70039976573121
C          -4.04310559639388  -15.98123424067754    2.77506228645053
C          -2.66087229817687  -15.75165292210899    2.87273512615098
C          -2.18081574469949  -14.91476143703260    1.85707708178533
S          -3.41630208472868  -14.41354240730968    0.79144180531030
C          -0.78177204756156  -14.74709288077062    2.02231750837735
C          -0.37632062261624  -15.49391069225717    3.14647637009639
C          -1.54713592938683  -16.14518600828170    3.71925892772410
C          -1.58499160814208  -16.96008028355525    4.81090601109365
C          -0.42482379115772  -17.28361048704475    5.54756323180688
N           0.51773671334189  -17.55412522927570    6.14080030866741
C          -2.78476992255370  -17.54463900749004    5.27170847624909
N          -3.75490554737814  -18.02599436063484    5.64682417808064
C           0.99134935124288  -15.42383395035241    3.36911741316938
C           1.63508955593141  -14.60005966419154    2.45200525589476
S           0.50827517063741  -13.94396147020974    1.26466687361671
C           3.02962968890986  -14.41357379683851    2.38717983278230
C           3.79217506550699  -13.51890370915752    1.69675440685436
C           5.21747236491377  -13.87516775810529    1.43640618471009
O           5.83526114912265  -14.78370753024523    1.93807015329787
C           5.67527193945440  -12.92206630473017    0.40613468612049
C           6.85753169902382  -12.89744379264977   -0.27482220122335
C           7.06945881700786  -11.88919899440316   -1.24197021839076
C           6.04423703872306  -10.93008549162664   -1.48802859265697
C           6.26818107990432   -9.92010300496113   -2.44436381531769
C           7.44799659285922   -9.87215767779880   -3.13113276344655
C           8.45716011801642  -10.82681954294614   -2.89615554302127
C           8.27380861344677  -11.81368372260904   -1.96807082480599
F           9.59891748201399  -10.75597452804519   -3.58923771361899
F           7.65780027576930   -8.90878388638912   -4.04010936322117
C           4.82547102166216  -10.98802860709347   -0.77362478061984
C           4.64980215516044  -11.96359083379421    0.17019875478962
C           3.53563296587287  -12.24135296494046    1.07573352360853
C           2.60858236773064  -11.30631836421657    1.46163396156899
C           1.66625687746497  -11.48917015389939    2.49188768608915
N           0.88966163640396  -11.57978954606968    3.33303761107166
C           2.59372225884823   -9.98748682765287    0.96866151639374
N           2.55961054801077   -8.89175416872468    0.62745767929625
H           6.53109393895612   -5.88658580111688   -5.50220343286739
H           4.68862397890659  -10.39097438531454   -6.44360129933460
H           4.92558506068577   -5.58148218806924   -3.69663302224843
H           2.98482713451451  -10.07551060156294   -4.64560523910931
H           0.87683642119365   -6.41688248682181   -0.00852936489122
H          -0.89843377647733   -6.99962328138283    1.50191213549475
H          -5.98762279676499  -10.47337911571610    2.23093951741872
H          -7.59579208932179  -11.86135930135545   -0.06003092801834
H          -6.45711071230687  -16.29905317001314    1.47373249390577
H          -4.62227289039766  -16.58446487937241    3.44989463973189
H           1.51763141514281  -15.92042909497470    4.16428431563582
H           3.60669767630196  -15.17388248536924    2.90874073514493
H           7.62130080546559  -13.63378719631401   -0.07700275672481
H           5.51169189997039   -9.17484768747240   -2.62915909942328
H           9.05765662295504  -12.53395372477071   -1.79379772148362
H           4.05632100781565  -10.26681073701827   -1.00097729045109
