105
 SCF done       -229.170523737331          0.000457438513
C          -3.60789151149720    2.19940617530885   -3.43352352016440
C          -3.49561816619091    2.45623289844299   -4.77139829376150
F          -3.37155181374093    3.71625508497821   -5.20675240114903
C          -3.50902589773005    1.40306524438805   -5.70804193747075
F          -3.39714817743681    1.68417663934699   -7.01276405451810
C          -3.63523102679861    0.10676181276569   -5.29337146438624
C          -3.75364747639868   -0.18957651648606   -3.92174546003384
C          -3.73918794385498    0.87390491620438   -2.97324794972771
C          -3.85584406347365    0.60085208268118   -1.59044350830805
C          -3.98549014105956   -0.69599041366640   -1.16853294861711
C          -4.00398031510936   -1.74943415188828   -2.12491352142831
C          -3.88992594511284   -1.51922426076901   -3.46546920964504
C          -4.16790157916757   -3.03188319560955   -1.42340255622510
O          -4.21119433771427   -4.13576491400253   -1.94031679981144
C          -4.27532131512664   -2.71218571227341    0.00331478267501
C          -4.12424151335864   -1.27726766732189    0.16595656580418
C          -4.08711409248293   -0.57105932407185    1.33951981129567
C          -4.18048394642708   -1.11994824793473    2.63619286717296
N          -4.23987036473047   -1.48797666117537    3.72236248042604
C          -3.92899685898486    0.82964951981624    1.41165906791259
N          -3.80444828415584    1.96345655281268    1.53906571472399
C          -4.52854585254352   -3.61724962319107    1.00385667340966
C          -4.70838166656124   -5.00706030113219    0.94562263360495
C          -5.02239689821418   -5.75847154883180    2.08679316927474
C          -5.16944925918544   -7.10343703701805    1.81169145120026
C          -4.95289809122569   -7.39456962104310    0.44182791331918
S          -4.58834931133514   -6.02147529404172   -0.49340192797510
C          -5.13619948954333   -8.78603293700436    0.25498287896156
C          -5.46739173650860   -9.37221479593426    1.49248703129088
C          -5.49932526367263   -8.33677715744184    2.51086356196372
C          -5.79322172459300   -8.49818466719669    3.83297154213973
C          -6.11324031213743   -9.76080777873357    4.37598979369651
N          -6.37679812263865  -10.78619181396258    4.81700411364836
C          -5.80569812446469   -7.41714623296395    4.73998213459249
N          -5.81995148402926   -6.54176330482426    5.47982590532728
C          -5.68109831754063  -10.74340233986849    1.40146627188081
C          -5.51620572745181  -11.20563104245727    0.10576756283608
S          -5.08386888165238   -9.92383937912564   -1.01209804711333
C          -5.69281989807108  -12.55777934238340   -0.32122077847413
C          -5.51941711093326  -12.99665201084254   -1.62937954435643
F          -5.13650415394837  -12.11883960066568   -2.57507504743422
C          -5.72738905893592  -14.31751455167324   -2.03984247394166
F          -5.52328808091799  -14.58875871580220   -3.34252175219030
C          -6.13496321867689  -15.33811709601188   -1.18734555824897
C          -6.30301308594189  -14.92657099805444    0.15926047185189
C          -6.08690585916332  -13.58079163041691    0.57820208752488
N          -6.33322128608519  -13.53502782192574    1.89489438565634
N          -6.66300135042080  -14.75301573060364    2.21263093616824
N          -6.66782704967250  -15.62341551151015    1.24441593871571
C          -6.99008801841201  -15.11225109069349    3.55716223925680
C          -6.38455984296729  -16.68182614953644   -1.60407695245813
C          -6.83214605561614  -17.71031464616488   -0.78944316410447
C          -7.00101089193752  -18.89520978570887   -1.49751602439155
C          -6.67443219032677  -18.76688421515830   -2.86118106365998
S          -6.16636810582307  -17.19241551749860   -3.26764314564744
C          -6.88914393048554  -20.01558841126259   -3.49071553475685
C          -7.34775872137870  -20.93839742228290   -2.52716774916570
C          -7.43311490603428  -20.26100939389150   -1.24330973903214
C          -7.83342756508198  -20.78611915467576   -0.05023087191358
C          -8.22469017086618  -22.13564848718489    0.08319493889519
N          -8.53485485244682  -23.23342185518025    0.19599889803572
C          -7.87633382074625  -20.01466845459981    1.13098306092040
N          -7.91232722190550  -19.39272853226627    2.09363061614368
C          -7.57588560487274  -22.20122868217485   -3.06074707030871
C          -7.33308847686332  -22.24952667239202   -4.42684084055239
S          -6.75851114093139  -20.69874591449186   -5.04104793552938
C          -7.41264678608502  -23.40298611008228   -5.23767675908904
C          -7.42088884003268  -23.50919931518533   -6.59535175063149
C          -6.99604182570816  -24.78840809064366   -7.23021676586504
O          -6.87326208488313  -25.86098905400854   -6.68798635192671
C          -6.69353617168956  -24.43620414574731   -8.63346666192558
C          -6.13441838152583  -25.20778699576333   -9.61083523379265
C          -5.89984201278747  -24.64016706922529  -10.88360794620729
C          -6.24843023912605  -23.27810450674350  -11.11875258466992
C          -6.00144758272454  -22.71645702138672  -12.38750324447785
C          -5.43743052709954  -23.47158126771332  -13.37711389738310
C          -5.09479488360977  -24.81889114327319  -13.14430023061558
C          -5.32125624500526  -25.39234321304952  -11.92449737336065
F          -4.54145151013755  -25.53452802078722  -14.13208293887527
F          -5.20299402710157  -22.93597537868168  -14.58176347356735
C          -6.83607266935015  -22.50613298019845  -10.09049087231649
C          -7.05919609481186  -23.07964942664655   -8.86799666565222
C          -7.66440058270995  -22.54898443509242   -7.64981742436118
C          -8.53983401219186  -21.49584865925122   -7.59694567846161
C          -9.31758929096653  -21.19830722871330   -6.45913131566252
N          -9.98820981769435  -20.95975325714128   -5.55843912797021
C          -8.82364396965458  -20.65947612649861   -8.69521805987190
N          -9.07050661626296  -19.94380263771283   -9.55771066345944
H          -3.59522855009802    3.01760797377100   -2.73048546414690
H          -3.64424184484729   -0.68837786692886   -6.02234396139939
H          -3.84264790754885    1.42946727416284   -0.90144142342604
H          -3.90588300111393   -2.33960217843032   -4.16675489932539
H          -4.62800563160246   -3.22206075360550    2.00773940515758
H          -5.13430505078105   -5.30603191675587    3.05648723294605
H          -5.94661897745208  -11.39838298519859    2.21001922174855
H          -7.07572476771929  -14.19788764476529    4.14009607294414
H          -6.20612698439303  -15.74641007832474    3.97329007115027
H          -7.92629023561867  -15.66902812417845    3.56789596131682
H          -7.01714921295465  -17.56574966260066    0.25874976505004
H          -7.92769461928933  -23.05359041270858   -2.50784284892287
H          -7.37137965371637  -24.34721169934433   -4.70219473578464
H          -5.87242775591660  -26.23656121902881   -9.41614299709343
H          -6.26123190156458  -21.68791027720813  -12.58352150428026
H          -5.05301381443520  -26.42455533687017  -11.76242813649008
H          -7.08381921651558  -21.47557660003950  -10.28994539289478
