105
 SCF done       -231.323740362399          0.000754719266
C          -8.36911608013819   -1.71164310057823  -10.22501765299413
C          -9.07975156196963   -2.11962933828622  -11.31906792069167
F          -9.49758967708041   -1.22420533952484  -12.22226715328617
C          -9.38255227820413   -3.48292671350149  -11.51086088472953
F         -10.08201375482294   -3.85317462220196  -12.59098257734458
C          -8.96922377097729   -4.42003642476211  -10.60566780225692
C          -8.23613567298930   -4.03055715786997   -9.46800958548613
C          -7.93004863983197   -2.65247863160705   -9.27203236089051
C          -7.19883632742214   -2.23675400658391   -8.13515518356833
C          -6.78869497180744   -3.16996544384804   -7.21986444479745
C          -7.10102594289074   -4.54315551973365   -7.42505028704161
C          -7.80115789449239   -4.97663646061929   -8.51384709110795
C          -6.56578015116886   -5.33021221989392   -6.30393116255178
O          -6.63735945919441   -6.54002072964485   -6.17138814402360
C          -5.94484031561590   -4.37035322350135   -5.38430148450986
C          -6.04191572902537   -3.04435252647209   -5.96943490303395
C          -5.51519422373926   -1.87870831452135   -5.47942230820780
C          -4.76017330543745   -1.75005337708466   -4.29404420451180
N          -4.13252995923823   -1.56444319863385   -3.35054105544029
C          -5.64292773600796   -0.62631925705048   -6.11803931135040
N          -5.71299015673601    0.41963795936465   -6.58525925265369
C          -5.42700989315972   -4.67459846485151   -4.15134100568076
C          -5.30705176407603   -5.91197083615525   -3.49856601783323
C          -4.81776058248306   -6.00834440163405   -2.18894429067907
C          -4.78906807697881   -7.31100413396217   -1.72999517932529
C          -5.24390839053580   -8.22970267393035   -2.70605983717566
S          -5.72578173264093   -7.49225027048055   -4.16061100303523
C          -5.19145645967778   -9.52835893635683   -2.14128105587714
C          -4.71477834827996   -9.43532416855392   -0.82087476236020
C          -4.43920887568735   -8.03994027707069   -0.51947797931298
C          -3.96185932773879   -7.52985502433051    0.65124403390905
C          -3.66399419468492   -8.35525241961589    1.75640826284293
N          -3.42337199743350   -9.02971613053224    2.65180684016317
C          -3.73926326634867   -6.14854156422633    0.83740393464539
N          -3.55910680698314   -5.02796249189517    0.99629903896817
C          -4.65578247052354  -10.67228884768949   -0.18308872194617
C          -5.07385213597462  -11.70136793948512   -1.01106709292675
S          -5.54541052047283  -11.13197845614775   -2.60384106147102
C          -5.17077533692516  -13.07299928521336   -0.64726544792187
C          -5.45702686237440  -14.17089846405033   -1.44784921887885
C          -5.63655679641054  -14.07158772205423   -2.83650693141868
N          -5.76257781222356  -13.96994166381674   -3.97188148453338
C          -5.51014387876624  -15.38455478292320   -0.70780154690666
C          -5.25408853700877  -15.16479884828971    0.64090620914293
S          -4.94363085036123  -13.51888842536265    1.03229925324209
S          -5.31496749540459  -16.57622961087916    1.64528270940006
C          -5.69971919895316  -17.49604888988079    0.22723492531065
C          -5.76925001744093  -16.76518712655594   -0.95434979946888
C          -6.09416532058597  -17.60017317335440   -2.05881112204515
C          -6.32708576027965  -17.15930872853094   -3.37270306751913
N          -6.55687586812039  -16.82862322500572   -4.44582147110152
C          -6.26082636032038  -18.92600923293685   -1.68618530439895
S          -6.03074905232564  -19.17210783848373    0.02953148656071
C          -6.58876157880918  -20.02475440290403   -2.53421115000340
C          -6.32045173018211  -20.15893460788594   -3.88302269639400
C          -6.81442559706859  -21.36103971357353   -4.39043856640882
C          -7.47538646737730  -22.13588599750429   -3.42269005082752
S          -7.45665375153958  -21.40485084992320   -1.88128780296877
C          -7.98956839731105  -23.29855770411632   -4.04864053124336
C          -7.63339906392832  -23.26995630062597   -5.41063164272412
C          -6.86518285630274  -22.06111465277809   -5.66529487621664
C          -6.28702112228283  -21.68207547353349   -6.83903505445076
C          -6.39430013162595  -22.46148366875283   -8.01171824466051
N          -6.47276983170552  -23.09614214760185   -8.96272249198138
C          -5.50320194099602  -20.51251606623131   -6.95482867489597
N          -4.83786682421661  -19.58476807105228   -7.05180525076545
C          -8.10401941837610  -24.37452672562440   -6.11280341120171
C          -8.86308084732279  -25.21845372637025   -5.31732017844295
S          -8.92233788271432  -24.66292966088753   -3.64536744172097
C          -9.47123915636838  -26.42423052783694   -5.74065587315762
C         -10.50801316599118  -27.11108473007099   -5.19057866792316
C         -10.69100929069831  -28.55239291736351   -5.52591578371079
O         -10.14332932564268  -29.16252373471692   -6.41289423533741
C         -11.62709361400634  -29.06872190402579   -4.50677718045026
C         -12.04273660612910  -30.35191689798722   -4.29613865607569
C         -12.94015548698404  -30.61809036751031   -3.23778838616551
C         -13.38320691692953  -29.54616611662621   -2.40901184550772
C         -14.27354786597746  -29.82023686519712   -1.35139683107640
C         -14.70780637256274  -31.09695020229075   -1.13009939247574
C         -14.27136867886968  -32.15592208700583   -1.95202770775241
C         -13.40582756844411  -31.92297067185043   -2.98382148863003
F         -14.71310979491591  -33.39682980916585   -1.71125845775139
F         -15.55510288952999  -31.35500798742444   -0.12626597531537
C         -12.94048145271604  -28.22644617318456   -2.65454006887568
C         -12.08205837133331  -27.99045970479244   -3.69459048482489
C         -11.51409531239996  -26.74950862496201   -4.21381251649279
C         -12.04814724836159  -25.50157450680982   -4.02647881168262
C         -11.66730334724797  -24.37288245408866   -4.78114117227446
N         -11.40994268087388  -23.44487474026156   -5.40598090109503
C         -13.09870490559021  -25.22587291243721   -3.12782409210037
N         -13.93626944389069  -24.94918810939859   -2.39377602769313
H          -8.14592110452290   -0.66429276937579  -10.09416581288465
H          -9.20860324351541   -5.45953832497258  -10.76641288955330
H          -6.98754265705064   -1.18652451674684   -8.01719984023327
H          -8.02261077796543   -6.02520952856334   -8.64230464548221
H          -5.06575982566898   -3.84660029776894   -3.55311508381465
H          -4.51150254036116   -5.14361808389784   -1.62692758934048
H          -4.32779215828829  -10.83333602535104    0.82853263011712
H          -5.78756215744552  -19.42162534457414   -4.45438959612731
H          -7.95090431641797  -24.55375096425177   -7.16164853515449
H          -9.00215849210661  -26.90449386859857   -6.59500049424858
H         -11.69426087898214  -31.15279318120200   -4.93023526491096
H         -14.62114263528752  -29.02070605229498   -0.71598955229573
H         -13.08151063016733  -32.74408223412637   -3.60370349026878
H         -13.28525004503314  -27.43418529400606   -2.00918573628699
