107
 SCF done       -231.660620207292          0.000985805319
C          -4.17243403289263   -4.46205457388564  -12.23862116786201
C          -4.04391477793846   -3.12091639591264  -12.46687022665744
F          -4.03051359511430   -2.64906932203739  -13.71968672155582
C          -3.92482107538369   -2.21777333619627  -11.39068528535491
F          -3.80013762103865   -0.90862216696492  -11.64441586302276
C          -3.93640936194198   -2.66900209307646  -10.10080303359127
C          -4.06816381474635   -4.04559921993537   -9.83281970112724
C          -4.18942037080302   -4.95987624840743  -10.91967603414428
C          -4.32789551290995   -6.34458991186230  -10.67475418380291
C          -4.35186926478345   -6.80211349066007   -9.38231484055391
C          -4.22522752644443   -5.88249979390097   -8.30404245855317
C          -4.08266199471363   -4.54007642945511   -8.51031784844287
C          -4.27085784281246   -6.61004754693417   -7.02156174240116
O          -4.11939905649177   -6.13582694531141   -5.91898121811520
C          -4.43762101529430   -8.04667735653064   -7.38566096865285
C          -4.50339291189108   -8.14648502210876   -8.83641120016601
C          -4.74511828613131   -9.28001952196717   -9.56217420508460
C          -4.97520047633337  -10.56259138408051   -9.01676611884284
N          -5.19100884770279  -11.63043458772758   -8.65582041817030
C          -4.82415665050458   -9.31390210000203  -10.97155893979527
N          -4.89516128624452   -9.40307156693143  -12.11356921935639
C          -4.37750454369806   -9.07022717543902   -6.50277583666164
C          -4.42851607764455   -8.93389628878527   -5.06264096024054
C          -3.52383933182109   -9.66443154806894   -4.28883629976233
F          -2.62484074389320  -10.40868540926675   -4.97025793800443
C          -3.47119007564533   -9.59273314156553   -2.90081659429660
O          -2.54875034816418  -10.15227128205304   -2.09905271993852
C          -1.87509193040712  -11.33357120122268   -2.50342394122567
C          -4.43728720229634   -8.77252279387275   -2.27480739490760
C          -5.34700950347900   -8.04625278282187   -3.04709730182349
C          -5.39072785063405   -8.11059379297924   -4.43529968064426
O          -6.30345897717310   -7.54680832027086   -5.24706467877445
C          -7.18836907996798   -6.55547820441961   -4.76189440225986
F          -6.25170581767984   -7.29908551968791   -2.36713565000381
C          -4.52728051125890   -8.74760074260257   -0.83039164686064
C          -4.45768711863060   -9.84871294636761    0.02214942646605
C          -4.63955431374757   -9.48733089848573    1.40577094564016
N          -4.52420987150180  -10.39820125996329    2.37477656849341
C          -4.31651498889618  -11.64030675120914    2.01231495869929
C          -4.24086575710616  -12.64926146733811    3.09783048784937
O          -4.40095561165910  -12.36676160540528    4.26648294560917
C          -4.00924176367092  -14.03340426740242    2.64457503698804
C          -3.90434015971204  -14.38284128614037    1.35863696437516
C          -3.97664067525776  -13.42515935726870    0.23906146929745
O          -3.80450864108998  -13.76399971676738   -0.91256901632770
C          -4.22041876148779  -12.01411907082983    0.63286350136942
N          -4.28880863920819  -11.12807055810455   -0.33157034866514
C          -4.86904660228027   -8.12127517757818    1.58364558710871
S          -4.79697175462787   -7.30579224688498    0.07340482338161
C          -5.03903060128424   -7.45451071601657    2.84399226232354
C          -5.63704405821449   -8.12010936476853    3.91843486834736
F          -6.36020634857570   -9.22249034091436    3.64149502441855
C          -5.57387528395887   -7.64611981828444    5.22422433860129
O          -6.02969574704725   -8.28432151340716    6.31826623575533
C          -6.40698277973330   -9.65271123026306    6.24928817775864
C          -5.01993306812046   -6.35842919373285    5.42404765397680
C          -4.58922629707662   -5.62271025311730    4.30939434979893
C          -4.54318188956488   -6.14198328952803    3.02610209404031
O          -4.08673173614510   -5.54013318277339    1.90672432292871
C          -3.31175422823168   -4.35750364311538    1.98507168059236
F          -4.14990938147273   -4.36675422043150    4.55053512359973
C          -4.98605209497496   -5.71139338655253    6.70932087910370
C          -4.84582540263560   -6.21328460012916    7.95867849570842
C          -5.21896588611419   -5.34786131492390    9.11900974632628
O          -5.43724093761208   -4.16057442492478    9.09352794351867
C          -5.31570016535727   -6.26536793982085   10.27099762941628
C          -5.74544699685240   -6.00336788889491   11.54005957172552
C          -5.78635991893698   -7.05539609333131   12.48203185485704
C          -5.38482970018064   -8.36444302322901   12.08551351765769
C          -5.43733905698789   -9.41141216342770   13.02792160299047
C          -5.86444158422221   -9.16966401062611   14.30336013224759
C          -6.25911659502731   -7.87415633577183   14.69468001043011
C          -6.22134687436351   -6.83824042117788   13.80409049557586
F          -6.67423465534793   -7.66676831989803   15.95139949151994
F          -5.91282673787657  -10.16564409058562   15.19724257740217
C          -4.93708767037154   -8.60367549125109   10.76616745919624
C          -4.89593504246108   -7.56660754658570    9.87213220061333
C          -4.46463181959944   -7.51112760736025    8.47858982195845
C          -3.66858087556637   -8.43255298622537    7.85476392111149
C          -3.09335047464642   -8.22954728058932    6.58433207642750
N          -2.58776783287401   -8.08046679582709    5.56510643727616
C          -3.27414651889669   -9.65276615020804    8.44330813061304
N          -2.94075073823142  -10.65805277762125    8.88462341167082
H          -4.26361003738617   -5.13915904907261  -13.07352996939143
H          -3.84373685052965   -1.96527631919782   -9.28846122038718
H          -4.41047734191104   -7.01023932652103  -11.51851860395622
H          -3.98704925891588   -3.86464838382454   -7.67370567369183
H          -4.22949840650794  -10.08030193456405   -6.86496015733089
H          -1.35515565190574  -11.68017388045862   -1.61224008936155
H          -1.14768937589259  -11.14010185328370   -3.29451801739897
H          -2.58503123786456  -12.09918379439044   -2.82126884126206
H          -7.70723693818952   -6.18384151922549   -5.64440993666079
H          -6.64326671208513   -5.73660614082897   -4.28876086617021
H          -7.91714142117011   -6.96969756723534   -4.06175235166054
H          -3.94002540221563  -14.76884625778548    3.43488644212081
H          -3.74393821306907  -15.41242814447908    1.06742377670250
H          -6.49963395613629   -9.97212706989905    7.28678181523949
H          -5.65062432977934  -10.25783686663624    5.74444040069610
H          -7.36817493066544   -9.77677601072188    5.74756596703137
H          -2.94843334146458   -4.19020060116979    0.97259191629425
H          -2.46500747066728   -4.47988066202896    2.66344567919071
H          -3.91383556275029   -3.50303320732058    2.30070056600089
H          -5.13518715272172   -4.63459400731915    6.68076642161660
H          -6.05212959828224   -5.00735440318332   11.82113007522949
H          -5.13562939098813  -10.40822012986037   12.74638603005937
H          -6.52701524272233   -5.85269445912782   14.11881066612191
H          -4.64522120193654   -9.60501717250968   10.49217552203694
