100
 SCF done       -226.157645833575          0.000670937134
C          -4.17513776150762    3.50447111676778    1.67908188969056
C          -4.60752778051740    4.31050135130614    2.69433233288845
F          -4.40802739510591    5.63313460370974    2.63535280697674
C          -5.26736640581507    3.76371492844352    3.81400503025790
F          -5.67919292475644    4.57870372557469    4.79352316279269
C          -5.48635874035100    2.41757744030851    3.90232790780851
C          -5.05304331165575    1.56075662016497    2.87179773670133
C          -4.38497123112225    2.11172838637659    1.73965916147670
C          -3.93991994231177    1.27234036035758    0.69320892855314
C          -4.15700185080696   -0.07904227204385    0.77402430788253
C          -4.82701767887897   -0.61655891982877    1.90579424720429
C          -5.26697144859725    0.16656309491479    2.93399726871405
C          -4.94847444945825   -2.07813681570163    1.76222440514966
O          -5.45482252664609   -2.82502814225235    2.57138168234275
C          -4.32007193680143   -2.41109797498950    0.45931016795799
C          -3.82205466108123   -1.17522643065120   -0.13109358950776
C          -3.15368688542214   -1.02537571484620   -1.31839532513697
C          -2.80550509351040   -2.04672014491687   -2.22844957726437
N          -2.47811667694485   -2.80599957087592   -3.02612144301838
C          -2.69873274188728    0.21540527689383   -1.81688933408527
N          -2.29938185924016    1.18467735253749   -2.28396429861922
C          -4.19282190426238   -3.63818895577737   -0.13216646188337
C          -4.62354581133684   -4.92262224117130    0.25837665533873
C          -5.34758208195113   -5.39523793418281    1.34672166455324
C          -5.54322811244349   -6.76785872639580    1.28803685741948
C          -4.96343355930818   -7.36433087637030    0.14582402516286
S          -4.18633180145142   -6.23296834872114   -0.85174285185828
C          -5.21564804314271   -8.75905054440370    0.18949128892861
C          -5.94990824076376   -9.04400675927838    1.35416128480128
C          -6.19272095158441   -7.80494298645572    2.07626024989567
C          -6.90234063315359   -7.65307253966909    3.22936016656974
C          -7.51301377373981   -8.74714347402400    3.88185491081063
N          -8.02317148148236   -9.62618254336174    4.41182556487988
C          -7.11042084235760   -6.40358186320063    3.85526673561141
N          -7.30877522980632   -5.40954807332072    4.38952075952997
C          -6.24111629554262  -10.40060983662386    1.48970537214610
C          -5.74576870851012  -11.14357254724555    0.43395408186490
S          -4.90981639120511  -10.14847526241273   -0.74590507020570
C          -5.86937724919750  -12.56769615861930    0.24272762515847
C          -5.77501653544521  -13.17555624143118   -1.01825980731683
F          -5.54146516420099  -12.41557451005164   -2.09784981081847
C          -5.94780580151479  -14.53445494390595   -1.20949191254526
F          -5.88290744733326  -14.99582654978772   -2.46367832908690
C          -6.22094917959061  -15.41263796517528   -0.14809864153371
C          -6.28635360982257  -14.80642560974373    1.11659438070926
C          -6.11433186286231  -13.44879728049167    1.30768332929135
F          -6.16581758774382  -12.98929958170380    2.56300736039377
F          -6.51153306801405  -15.56200003775489    2.20131539389180
C          -6.44330968169302  -16.82474051938162   -0.33680607845595
C          -6.09572754410607  -17.60566737946956   -1.42480954873519
C          -6.51245968780986  -18.92824720113564   -1.27200909432058
C          -7.19019676515036  -19.14585988564859   -0.05991151799464
S          -7.28946261628571  -17.74612503693280    0.89720721575911
C          -7.58363513403993  -20.50598049994436   -0.00069579228264
C          -7.16196601083424  -21.14987757706117   -1.17871910033313
C          -6.46634312606713  -20.18003179068872   -2.01308057250092
C          -5.89073479764245  -20.40396572036987   -3.22776669814477
C          -5.93194124948497  -21.66863543580440   -3.85448705975604
N          -5.97443092945960  -22.69013533473618   -4.37235822372546
C          -5.21549644231043  -19.39119438145973   -3.94340439660275
N          -4.65881139017728  -18.57685305945848   -4.52672729972490
C          -7.52374970668529  -22.49344822335206   -1.21305700084681
C          -8.18151572040030  -22.88980501254682   -0.05858570936918
S          -8.40010075927487  -21.54941586742213    1.06345753122035
C          -8.72290073167748  -24.17410190566162    0.19143508365730
C          -9.10900432636899  -24.72616866575176    1.37205866925462
C         -10.08945427315813  -25.85100139796958    1.37327354351979
O         -10.41288726026942  -26.52906921166636    0.42819078579504
C         -10.61744262549040  -25.89389369975124    2.75259115094196
C         -11.64227640765915  -26.64206099444577    3.25661901778989
C         -12.00304390698355  -26.48651908869629    4.61399393389282
C         -11.29383004572886  -25.55339183824923    5.42574674311189
C         -11.66778085366737  -25.39521181124237    6.77537620880620
C         -12.69577556356655  -26.13006390880806    7.29578669912765
C         -13.39511150121987  -27.05435829852953    6.49304027850773
C         -13.05645250661804  -27.23048908252905    5.18063577989085
F         -14.39912091238025  -27.75924254927210    7.02928007547901
F         -13.05063935976757  -25.97771400108778    8.57727689417121
C         -10.22936949885595  -24.80056026982427    4.87988965250186
C          -9.89407925647798  -24.97303024098890    3.56398140973894
C          -8.84486253343503  -24.36700405492283    2.75054982459716
C          -7.68582374418403  -23.82012375303054    3.23359280700490
C          -6.58631732900042  -23.49445759930586    2.41252491501366
N          -5.66767699046185  -23.25307822019068    1.76813877350520
C          -7.43628827289553  -23.60354437910481    4.60425025609766
N          -7.19881839755668  -23.39658572692008    5.70744305804792
H          -3.67173597070216    3.93936935404862    0.82974853214391
H          -5.99282490102354    2.01404074585145    4.76506107730761
H          -3.43861974854801    1.72467302207510   -0.14651276453839
H          -5.77193047838836   -0.27479542999831    3.77974720596472
H          -3.67116421255290   -3.65076720166579   -1.08174674694084
H          -5.69807113785978   -4.74667958162603    2.13014020027173
H          -6.80031291763124  -10.81884499478077    2.30527914660961
H          -5.55620530565131  -17.23794889774393   -2.27741082282716
H          -7.30454077335227  -23.17512215345524   -2.01492982798004
H          -8.93530012206423  -24.76927775429309   -0.69194923646532
H         -12.17275769552726  -27.34124832382587    2.62841943209267
H         -11.14035833157373  -24.69521322296762    7.40437637781164
H         -13.60172943130770  -27.94159130189996    4.58007822022673
H          -9.71277644470640  -24.09516651628640    5.51136470140059
