99
 SCF done       -201.835034897899          0.001201963873
C         -16.83494960978030   -1.30599450633400   17.99574153281348
C         -17.36041997223981   -1.41456330409359   19.25280679628072
F         -16.73010386317557   -0.85731335237899   20.29686777969285
C         -18.56575542766190   -2.11073754550318   19.46789579712348
F         -19.05858204306289   -2.20235905211415   20.71198147454700
C         -19.22976687612751   -2.68943309770300   18.42255952372395
C         -18.71357015198156   -2.59544001675595   17.11597696684206
C         -17.49489091672755   -1.89135764479738   16.89709381413063
C         -16.95613159357626   -1.78495203122971   15.59350323217386
C         -17.61465607606223   -2.36641977508625   14.54361624879852
C         -18.82946795321526   -3.07009218849739   14.77200886208657
C         -19.37576247560667   -3.18744651844315   16.01651275391328
C         -19.32566129159117   -3.61259081759064   13.48969995024526
O         -20.34318977895108   -4.25762911015055   13.32820418653718
C         -18.32991900960689   -3.21032849128509   12.47499961310369
C         -17.30252466742787   -2.43058241852156   13.11543269391644
C         -16.21591709875595   -1.83191592772868   12.52076294486851
C         -15.90039997086303   -1.86729781006246   11.14774913462061
N         -15.56572342142575   -1.83993684037137   10.04879018581525
C         -15.25147450220071   -1.07641382343289   13.21663974239066
N         -14.42944587501457   -0.44942555615876   13.71780981059118
C         -18.38083503565575   -3.57093169524237   11.14211530796948
C         -19.37948546677761   -4.34906206627242   10.56620243239217
C         -19.35922451856416   -4.74048586307849    9.23944709595964
C         -20.30712283389118   -5.56834611901914    8.59588963365484
C         -20.01069315237629   -5.83868099983988    7.29118280803905
C         -18.81917484198048   -5.22940704268146    6.84385088366048
S         -18.09036004942188   -4.29192454624445    8.12199263828271
C         -18.21329410290545   -5.33197599626577    5.59950392269854
C         -18.63050052011108   -6.12336901783777    4.50719100955992
C         -17.77839627204837   -6.05600759287698    3.44458499881021
C         -16.66863491539814   -5.20475883465612    3.65764640867093
S         -16.73206975339961   -4.46308775586225    5.23193300040231
C         -15.61632666859338   -4.96965582247613    2.80022337652932
C         -14.58080209964276   -4.09896144915533    3.17277052692428
N         -14.72012484680152   -3.45926851876329    4.34662736050131
N         -13.87676885335897   -2.63536515704085    4.82588236891642
C         -12.71045509470836   -2.33547213135681    4.22358030099022
C         -12.42221102851921   -2.95997437697869    2.96971532364861
C         -13.39892488908900   -3.85253364215382    2.41603424517174
N         -13.02819078364901   -4.34722407753796    1.24449102778822
S         -11.57758653400754   -3.75118562919147    0.86303483243538
N         -11.36837434909289   -2.83532625568366    2.17836917434361
C         -11.91894841788768   -1.40497190942002    4.92343411074173
C         -10.63888703038112   -0.95897875074301    4.69329971884345
C          -9.99142542703282   -0.00271571415051    5.52008564227781
C          -8.69976760672974    0.25816436096131    5.17678796618596
C          -8.25922974720289   -0.49385904362813    4.06683256963016
S          -9.54241798457862   -1.49689563115486    3.44083336814986
C          -6.98957005280127   -0.51626214468168    3.50479829212696
C          -5.85759866416720    0.23707243795335    3.87394431007274
C          -4.74122445955045   -0.05717623662822    3.14322433567699
C          -4.93842916023290   -1.06431265035208    2.17392647069063
S          -6.60057237119582   -1.60039645479061    2.19195188468002
C          -3.98017291445181   -1.59267774503939    1.32562268486494
C          -4.23518968884709   -2.64577428135178    0.45728280268736
C          -3.37151150752978   -3.27962426242086   -0.41255678495712
C          -3.71669483232022   -4.64169908463322   -0.88005755312384
O          -4.78560032993662   -5.20246094454093   -0.76385640730271
C          -2.47300866026249   -5.18190376497644   -1.46793869658791
C          -2.22242974808047   -6.43478264133036   -1.94500450721725
C          -0.92938936693927   -6.73988165484571   -2.42764298428167
C           0.07882039029527   -5.73391462192050   -2.40459138993950
C           1.36775627810671   -6.04641140157298   -2.87990759132925
C           1.64255385956723   -7.29812757173132   -3.35582594238542
C           0.64468363938288   -8.29166557621263   -3.37802071595160
C          -0.61580448642832   -8.01945043417210   -2.92449737131468
F           0.94207086782794   -9.51205693706967   -3.84865656354850
F           2.87075729017643   -7.59266638080726   -3.80676556764092
C          -0.21486105668575   -4.44037868895032   -1.91118308793288
C          -1.47438132763646   -4.16726764748294   -1.45226289298309
C          -2.06757028242396   -2.94202683412983   -0.90952753510165
C          -1.52885848965120   -1.68343353652829   -1.04947481205035
C          -2.21988701273641   -0.48663274545608   -0.77809881211539
N          -2.74229699448823    0.52404137783646   -0.61906940747819
C          -0.25427325237469   -1.43175434393471   -1.59244008485715
N           0.78220130923360   -1.16488826283066   -2.00903524793123
H         -15.91080637488808   -0.76924951584023   17.84799300943831
H         -20.15162036810930   -3.21947708074221   18.60415723892248
H         -16.03148949380263   -1.24672770231177   15.46330878936927
H         -20.29923673212706   -3.72714668637460   16.16169615744782
H         -17.57888753781234   -3.24672105087448   10.49027415282085
H         -20.20199009950916   -4.68486080038234   11.18165431688052
H         -21.16936703616444   -5.94392872501966    9.11763179551008
H         -20.61348524640085   -6.45475391020961    6.64854832031909
H         -19.52050780488009   -6.72666877284804    4.52965689746488
H         -17.90683552701731   -6.59300197634294    2.52118871061119
H         -15.56317552182957   -5.46274097825670    1.84210507617797
H         -12.41493315645173   -1.00826404884348    5.80119743833693
H         -10.50642588378632    0.45465550939044    6.34623362658282
H          -8.06223540709520    0.95012640589086    5.69671491258450
H          -5.88947310461267    0.96894837392211    4.66071098535362
H          -3.78404114456936    0.41485530992862    3.27462109862750
H          -2.98640309097326   -1.17706530314564    1.40171489092251
H          -5.21288875126310   -3.11499466984587    0.52916523204538
H          -2.99818829174449   -7.18520313197402   -1.95191197999299
H           2.14358627261130   -5.29670863722524   -2.87309259398718
H          -1.36946073009345   -8.79085370092777   -2.94802669636761
H           0.57087145240494   -3.70224477080027   -1.90070329811683
