98
 SCF done       -209.832793357254          0.000720305242
C          -4.79871499715433    0.49715259274551   -7.89093789862888
C          -5.06195940468874    0.38922833371907   -9.22788890424579
F          -4.98870822223235    1.46756677956947  -10.01748428303110
C          -5.41323132577679   -0.85404880686126   -9.79177219029663
F          -5.66708102050955   -0.93024786493756  -11.10436167690067
C          -5.49537643496496   -1.97281590051227   -9.01063523148967
C          -5.22942915705022   -1.89378886805461   -7.62988549070861
C          -4.87519253884929   -0.63727305494215   -7.05832193699455
C          -4.60497639686352   -0.53235569148225   -5.67436139944526
C          -4.68584372906786   -1.64937966202171   -4.88549820383492
C          -5.04113663352697   -2.89941654421946   -5.46610737445148
C          -5.30747278633087   -3.03302401559748   -6.79846340779927
C          -5.06266916302986   -3.92799139633360   -4.41447764063579
O          -5.31571009272692   -5.11170110088542   -4.56410788105739
C          -4.72972786981684   -3.24350586851557   -3.16071796890289
C          -4.46846866539499   -1.84510263102547   -3.45342581410396
C          -4.06525792221529   -0.87223748200844   -2.57737084818058
C          -3.82519161946002   -1.05056453858665   -1.19798410571685
N          -3.60120000087838   -1.11570182665309   -0.07366791369215
C          -3.81631877565215    0.46752340268115   -2.94629294327405
N          -3.59657719345094    1.56916888008275   -3.18122614449753
C          -4.70937482420822   -3.82589476930132   -1.91934767135489
C          -4.93182111092319   -5.15741544135475   -1.53568698038603
C          -4.88991791409324   -5.54906941623751   -0.19126309466726
C          -5.11674183812123   -6.90134261492822   -0.02701396763329
C          -5.32774457834361   -7.56156410625784   -1.26093967098074
S          -5.26445605380559   -6.51960535387988   -2.60529108250036
C          -5.54169315483081   -8.93613418838425   -0.98553724725541
C          -5.46836608173553   -9.14442116949992    0.40235299527442
C          -5.20316167736825   -7.87285920060690    1.05360080708670
C          -5.07234796851103   -7.64383173044242    2.39127762133282
C          -5.18706586497770   -8.68314892759945    3.33880625085518
N          -5.28107237416119   -9.53379202319784    4.10174295711757
C          -4.82260765121313   -6.35762118876517    2.91613123644732
N          -4.62406902315303   -5.31448065004260    3.34735104008943
C          -5.66464476159353  -10.47873246700694    0.76261270838688
C          -5.88316262354553  -11.28623859204031   -0.33535749109827
S          -5.84732641921177  -10.37907800815041   -1.84187246194190
C          -6.11403998756913  -12.70142656617032   -0.35111067868808
C          -6.21546111756643  -13.43459032190905   -1.54596802364416
N          -6.41402024447334  -14.72893432699564   -1.57867730725208
C          -6.52145075046270  -15.35921030629080   -0.40528146426898
N          -6.45460557688416  -14.76355696659617    0.78940125780211
C          -6.25733930624096  -13.46910188050296    0.81894120088365
C          -6.72403380989060  -16.77763533489776   -0.41352459019184
C          -6.80713653797224  -17.61482199032110   -1.50856648601278
C          -7.00092452278712  -18.93942241726911   -1.11967432509832
C          -7.06405955171330  -19.08802796467527    0.28050029734801
S          -6.88301887672575  -17.60888039563745    1.11064321229759
C          -7.25551089542597  -20.46155773659627    0.57479300927181
C          -7.32108199961029  -21.18018845726074   -0.63505895840063
C          -7.16078524916199  -20.24545311834022   -1.73891745843244
C          -7.16186973311792  -20.53596680754946   -3.07071055103213
C          -7.34306146527126  -21.85059890269299   -3.55234161240223
N          -7.50124600395436  -22.91414824270677   -3.94944639846626
C          -6.99161522886494  -19.54348481045377   -4.06014223180486
N          -6.85350951089448  -18.74592810450810   -4.87160569882748
C          -7.52301679386285  -22.54198475573064   -0.44147482657927
C          -7.57488903992623  -22.88081621012116    0.90330381485874
S          -7.42112508785273  -21.46250469647090    1.93869956867254
C          -7.82743518309544  -24.17573436201268    1.41154375783598
C          -7.65062532133300  -24.67006242351373    2.66671242714304
C          -8.42350218465622  -25.87273021563681    3.09040685611567
O          -9.02875954862019  -26.63321736895810    2.37335755365605
C          -8.34174796159519  -25.87955108746076    4.56550733561027
C          -8.98261343778976  -26.69165438522389    5.45620788513201
C          -8.77291336233863  -26.49396179908703    6.83951253129514
C          -7.90343328436269  -25.45130346745349    7.27446877419994
C          -7.70633477219632  -25.25510309516991    8.65616162832531
C          -8.33952021720916  -26.05768491191006    9.56317002592261
C          -9.19763254859947  -27.08971039527188    9.13198997096491
C          -9.41030221116196  -27.30455856691242    7.79907811634776
F          -9.80611322858921  -27.85956440507797   10.04329261362290
F          -8.15065629012393  -25.87002020107743   10.87525171232645
C          -7.24650606456737  -24.63119225518039    6.32877694746091
C          -7.45864525608776  -24.84704950047738    4.99377557184185
C          -6.90005965999851  -24.19835142665867    3.81092644860396
C          -5.71348814600947  -23.51456685710814    3.77133578528912
C          -5.06660949908809  -23.16455368078475    2.56822113030157
N          -4.50013422757077  -22.90327992652098    1.60470070180847
C          -4.96950624986051  -23.17239162037011    4.91857203310855
N          -4.33851591808738  -22.85986406754991    5.82461126905063
H          -4.53103676765355    1.45613809005522   -7.47546972882369
H          -5.76540933878205   -2.91668420563530   -9.45777013034231
H          -4.34272370901498    0.43364297288602   -5.27498118373964
H          -5.57444035401824   -3.99382409573944   -7.21164311545436
H          -4.49437847506364   -3.17820245089389   -1.07796818749170
H          -4.69808881584025   -4.84940767047625    0.60308635896370
H          -5.64199537467251  -10.84369044662480    1.77270428203162
H          -6.12770697112011  -12.94417202002017   -2.50839430115305
H          -6.21587687873731  -13.02310636728395    1.80328849037347
H          -6.72537498083058  -17.25024981401625   -2.51589947242199
H          -7.60386092241697  -23.27483774825241   -1.22393173047744
H          -8.31160381617807  -24.85547759889593    0.71575552237371
H          -9.64024614937621  -27.47465435075306    5.11070235896888
H          -7.04978857121088  -24.47254668566286    9.00313320624515
H         -10.07003831823143  -28.09829702485696    7.48533031095613
H          -6.59973682435388  -23.84408913886637    6.68280780301850
