109
 SCF done       -230.946448158827          0.000997968211
C         -10.65300212507336   -4.43676279089472   12.51205893329023
C         -11.91472662253513   -4.00021593788308   12.22041736541580
F         -12.75494836276081   -3.65970241706035   13.20703116375466
C         -12.34785110237117   -3.90181465951389   10.88318633518033
F         -13.59068880408218   -3.47046186065549   10.62558632742880
C         -11.51301755814017   -4.24146026079562    9.85574830972972
C         -10.20672672077082   -4.69455972172832   10.12359548042039
C          -9.76711035993276   -4.79292488064412   11.47541659454042
C          -8.45847946107937   -5.24055421154936   11.76785260427424
C          -7.61717354958052   -5.57533439327371   10.74012513881655
C          -8.06550690627368   -5.48167675203713    9.39309382769106
C          -9.32425809007147   -5.05612480907355    9.08086201563735
C          -6.98706383858694   -5.91573001547311    8.47980422409595
O          -7.06793363761674   -6.00444220637108    7.27201876384971
C          -5.86206452603740   -6.31170860870403    9.35948526182548
C          -6.23678702827508   -6.04656591355148   10.73360879874117
C          -5.40710434158373   -6.11860334137119   11.82137967698397
C          -4.03553623802385   -6.44672259774520   11.76156359128827
N          -2.90950478931449   -6.66795901961015   11.79359654052499
C          -5.80816359816224   -5.81693820956989   13.13910031931814
N          -6.08392744745067   -5.58854310827505   14.22985751740597
C          -4.76553027335980   -7.01789727202912    8.95736624500481
C          -4.31267538571474   -7.17510215852524    7.61849935617010
C          -4.39605055921903   -6.16439249758029    6.63826367686792
O          -4.73077897431358   -4.94016379314246    7.07751452554004
C          -4.34744568302265   -3.78032813508303    6.36457922446071
C          -4.08108939583315   -6.45762455239039    5.28766853138124
O          -4.40153281110948   -5.55529558603923    4.29128056177387
C          -5.79271610272765   -5.54746022701893    3.98540677335419
C          -3.50674861678071   -7.66724431221519    4.89429370095528
C          -3.18846543334330   -8.60008349713738    5.91698207817841
C          -3.64735037506559   -8.37414091295366    7.25525635532574
N          -3.34137161409779   -9.38610100818703    8.06387109579284
S          -2.50721355984030  -10.48271301120341    7.22516516033802
N          -2.50586563866330   -9.73498740731302    5.80892837198970
C          -3.26454498930483   -7.95726690071663    3.52109140854560
C          -3.03504177725886   -9.21506454867088    2.95166421628555
C          -2.70014530646169   -9.13610511699384    1.55170097452810
N          -2.25114503214832  -10.21403903729476    0.91843295348645
C          -2.27980191035915  -11.36587995611240    1.54306606839468
C          -1.82222240335022  -12.55818517314995    0.79617433286513
O          -1.44983794681942  -12.50755157109081   -0.35984587713693
C          -1.94987322501753  -13.83065143427100    1.52680823623420
C          -2.48157442831212  -13.93426445988563    2.74990634717629
C          -2.94491517931652  -12.78246739104977    3.54413539428848
O          -3.30934385578416  -12.89616578291328    4.69677135495884
C          -2.83189596094781  -11.47204127009548    2.86238406863768
N          -3.17142742577948  -10.40234179590938    3.53789861494344
C          -2.79192295521403   -7.83136656720420    1.04093843345302
S          -3.18434664433482   -6.72622070286489    2.30863033941066
C          -2.51494755764440   -7.42935194697532   -0.29415694433741
C          -2.21465007715626   -6.08952961445096   -0.60514077002872
O          -2.42751183570394   -5.24454775209994    0.42701294466041
C          -1.99244879989705   -3.90076544894001    0.44906470582214
C          -1.71707302647931   -5.73220396901304   -1.88300567498711
O          -1.46226764194266   -4.41081554021169   -2.10981645375072
C          -1.93242081102712   -3.82508197940182   -3.31868068231074
C          -1.48730623097360   -6.69160251029314   -2.88010223607309
C          -1.92756128044759   -8.01647200372800   -2.62760328892065
C          -2.47783761905523   -8.37060974325852   -1.35339307925449
N          -2.89071707044624   -9.63425213484869   -1.32441244380723
S          -2.53535747542899  -10.33930813291473   -2.71372019179302
N          -1.88169371296224   -9.05983043218144   -3.45472360586822
C          -0.71734827139232   -6.36432534952018   -4.04369327049864
C          -0.71162721634163   -6.94211670989570   -5.27110445927084
C           0.47478580339755   -6.76172127674096   -6.15510784899130
O           1.35807655485396   -5.94674013855624   -6.02334720111126
C           0.34846782431545   -7.81216092942998   -7.18539144056363
C           1.23659915911753   -8.17266460844264   -8.15716874576334
C           0.91204656589086   -9.24298864441074   -9.02086859849534
C          -0.33109692825255   -9.92158934779231   -8.85846153500603
C          -0.64392987733679  -10.99190874883859   -9.72055291911905
C           0.23360515330886  -11.36909602836994  -10.69797341378607
C           1.46205503991005  -10.69700152496045  -10.85762075964310
C           1.79527097981371   -9.65586109656014  -10.03731125541220
F           2.30388193251258  -11.08908044218208  -11.82354962079534
F          -0.06677736755705  -12.38556571649083  -11.51699796646509
C          -1.23487876095660   -9.52068442598540   -7.84799625954336
C          -0.90106479284568   -8.47818610815215   -7.02544038869975
C          -1.62798958494047   -7.84588971678285   -5.93130715452633
C          -2.97691175922566   -7.92524193672723   -5.70905300323450
C          -3.63651034309630   -7.08144365152895   -4.79652518567122
N          -4.19025038027230   -6.35793768064800   -4.09694796872705
C          -3.84374171265112   -8.78734617851458   -6.40803268045851
N          -4.58805120244118   -9.47443201965183   -6.94777244698120
H         -10.33631920103552   -4.50521919940111   13.54106942148175
H         -11.86092968233705   -4.16156190068369    8.83774967001633
H          -8.15613937566889   -5.31346673048826   12.80009986807881
H          -9.64376572746616   -4.99383610192701    8.05159939285909
H          -4.20986145060385   -7.59202512546842    9.68892749319079
H          -4.28746880512004   -2.99172001843998    7.11563518624338
H          -5.09080957072586   -3.50206072309427    5.61515164087223
H          -3.37551185890146   -3.90496407510283    5.88379835382026
H          -6.07698707590930   -6.47159963156582    3.47309202878353
H          -5.95295227294641   -4.69967289835989    3.32232154912464
H          -6.39912309529888   -5.44759307739076    4.88918399559542
H          -1.60224862741264  -14.70375749332238    0.99088841293484
H          -2.57680023140615  -14.89420112078077    3.23959335768396
H          -2.59232906060911   -3.27669281984196   -0.21540629662928
H          -0.93935903989476   -3.81167786783164    0.18058796460489
H          -2.14150020687333   -3.58081905195383    1.48052929731154
H          -2.37699284418632   -2.86651448433249   -3.04311616991808
H          -2.68871461397876   -4.45026607846225   -3.79464195466017
H          -1.10943666898382   -3.64499435960895   -4.01216074728996
H           0.06307552969381   -5.62491740194612   -3.88686608892092
H           2.17574524423477   -7.65152903874479   -8.26478396421483
H          -1.58082430762074  -11.51589199695112   -9.61369554589621
H           2.73962587059813   -9.15206372638864  -10.17197449028014
H          -2.16538203224162  -10.05469979422231   -7.73894184575901
