107
 SCF done       -232.876345945556          0.000770106940
C           0.54931342712394    0.77971957840896    4.74657558088110
C           1.84920057340664    0.55533142943853    5.10407379648937
F           2.64996493226913    1.58352557383568    5.41241021070320
C           2.36300643812730   -0.75606685867604    5.15400474470109
F           3.64071407441518   -0.94710012355538    5.50898020487991
C           1.56986831886290   -1.82521736876841    4.84425675263373
C           0.22641675053768   -1.62662733959127    4.47146325555598
C          -0.29533484979370   -0.30129204489394    4.42390188974166
C          -1.64362670826001   -0.07876926375627    4.06174159753099
C          -2.44278269224833   -1.14881906949272    3.75830130768684
C          -1.91095553863589   -2.46867070021305    3.79656363069417
C          -0.61375319371957   -2.71407358586563    4.14276142459547
C          -2.96210035564900   -3.43602521815533    3.42025903228545
O          -2.83913777970579   -4.64329902073322    3.34660263157881
C          -4.14893566075882   -2.61759910050872    3.08975255123164
C          -3.84869914948543   -1.22974786886125    3.37998355361728
C          -4.75528785671080   -0.20395970736791    3.40317446453664
C          -6.14038090267362   -0.37571821186873    3.19303052101760
N          -7.27980805632591   -0.46065068471818    3.08320201829696
C          -4.42351624549157    1.13228029825824    3.70649296430743
N          -4.19834387749671    2.23358211601245    3.93877707192291
C          -5.22976522727042   -3.07136207011804    2.38510970599673
C          -5.51138270363235   -4.43292227948888    2.07545848012397
C          -5.28762933799837   -5.54670789288974    2.89568608309327
O          -5.24492914115219   -5.51575894684586    4.23625960350672
C          -5.64665245937982   -4.38943108506368    4.97075248980933
C          -5.26245448374731   -6.88068778971509    2.34029534983238
O          -4.78297567653553   -7.94253873845458    3.00927217498701
C          -3.86661791432090   -7.77573197852203    4.07782351001982
C          -5.74795975877338   -7.12149299056615    1.06466423593035
C          -6.17740381382996   -6.02497744827449    0.28225583696505
C          -6.02739767160249   -4.68738437274043    0.77018733997190
N          -6.41781349311925   -3.77974792177999   -0.11482380029264
S          -6.96498996303120   -4.54589420105134   -1.42770255855871
N          -6.71049994953303   -6.05700129733068   -0.93466675354538
C          -5.84414616556599   -8.46861176899563    0.51121771592389
C          -6.51092174490795   -9.50035534521498    1.18169478003328
C          -6.62900397454629  -10.81939959637991    0.61662727659965
N          -7.31891892510330  -11.77593714787768    1.28932602598935
C          -7.83120388955081  -11.47955372594298    2.43194816699835
C          -7.72779836058001  -10.16770177846632    2.98375596296053
N          -7.10616332380603   -9.22388496404117    2.36913388156543
F          -8.30381429633197   -9.88129668066921    4.15113462905734
F          -8.48928802585495  -12.43832398716712    3.08567725248885
C          -6.09383826721628  -11.13176736746382   -0.63758842424641
C          -5.43968086895745  -10.09812191625172   -1.31857831246935
C          -5.31251004665336   -8.77454873174824   -0.74700547324151
N          -4.61428657449619   -7.95741165016192   -1.54538778400966
S          -4.19221946013071   -8.76277559250467   -2.85874740463537
N          -4.83053777703435  -10.18203911864977   -2.50746289873625
C          -6.25502314292942  -12.44553713913032   -1.25506700182156
C          -5.88634081933551  -13.61891144509789   -0.61713973042890
O          -5.27835651411353  -13.46666875552323    0.57840798092122
C          -5.41533496036787  -14.43151998420314    1.60570371624711
C          -6.04072800033433  -14.89245836530022   -1.26853033499835
O          -5.50929534951244  -15.93025068991689   -0.58711844598585
C          -5.02788361121453  -17.09049359601990   -1.23860469889640
C          -6.62940836771292  -15.00256205018609   -2.52901853229251
C          -6.98447051947057  -13.79447937079789   -3.18979748175526
C          -6.79004842849727  -12.52335377020416   -2.55733150072293
N          -7.23627793265753  -11.51605713174620   -3.30223528699543
S          -7.83167774174631  -12.10679924535447   -4.67152800809195
N          -7.56681070674327  -13.67312087278994   -4.37954141165487
C          -7.00177749296061  -16.25588264076541   -3.13271772715507
C          -7.10837751984023  -16.54551654943023   -4.45283112445055
C          -7.96326388381419  -17.68024544796177   -4.89714840292193
O          -8.39068975443432  -18.57911157930149   -4.21078839937043
C          -8.20979452659668  -17.43241487986156   -6.33334382387978
C          -9.04407570829223  -18.09292558747066   -7.18838890823700
C          -9.15050651207140  -17.64764160897620   -8.52546318715233
C          -8.38770656756103  -16.52131858365937   -8.95164832260151
C          -8.50684506681388  -16.07775931308120  -10.28425157529210
C          -9.34164986620279  -16.72225546700417  -11.15313869087200
C         -10.09434409372511  -17.83656629607663  -10.73114887830005
C         -10.00128064444400  -18.29085537688437   -9.44548606421047
F         -10.90598390092007  -18.44839623896195  -11.60427261419774
F          -9.45326278434033  -16.29874219119329  -12.41914989735118
C          -7.52414879429106  -15.86320188034661   -8.04688041984375
C          -7.43441989219137  -16.31483231576831   -6.75748848778523
C          -6.63173066019684  -15.85244985289161   -5.63256054029717
C          -5.50556785004017  -15.07871728827776   -5.71085403782579
C          -4.64738275052029  -14.88852020720978   -4.61059978615415
N          -3.91064030637660  -14.77321551934498   -3.73748085275870
C          -5.05896049026502  -14.45043268140888   -6.88944824047785
N          -4.67207833240192  -13.90149397492259   -7.82038570186479
H           0.17100582048375    1.78955356532525    4.71518345997883
H           1.97895420774892   -2.82252568725023    4.88654113077181
H          -2.01049699854719    0.93448606916748    4.02806112023457
H          -0.23314357936117   -3.72391637150345    4.16793835905648
H          -5.84712499683010   -2.35388800408956    1.85789983678495
H          -4.80928692348819   -3.70637645825679    5.15114805724526
H          -6.00257707866918   -4.77536907362779    5.92684787680434
H          -6.44739469271232   -3.83921582708720    4.46810931462647
H          -3.28532739753883   -8.69781550839723    4.10266893977726
H          -4.39040345993697   -7.65151114150448    5.02753483530031
H          -3.20427561499819   -6.92609325369373    3.91028652338708
H          -5.24959298600365  -13.88514887703026    2.53468861027891
H          -4.67115865628969  -15.22478532385830    1.51587615784010
H          -6.41556322971418  -14.86531538616590    1.61685414341894
H          -4.77114211995525  -16.88819603544640   -2.27930705318268
H          -5.75151170847755  -17.90581227063262   -1.18123589744536
H          -4.12700103722055  -17.38274534735498   -0.69544420526991
H          -7.39203555785195  -17.01670585150918   -2.46554372014030
H          -9.61898366355418  -18.94151175603963   -6.84999563131592
H          -7.93561102217826  -15.22805405090300  -10.62407063232708
H         -10.58471640828877  -19.14467825609502   -9.13841825737802
H          -6.96282769973826  -15.00861169702328   -8.38969279685748
