134
 SCF done       -277.532165851156          0.000409904392
C          -7.05571480093301   -2.84931568847827   13.86902633547271
C          -6.53967217067687   -3.23507965343389   15.07428324443326
F          -6.75429417505996   -2.49194667159825   16.16741935790992
C          -5.77798940611610   -4.41611575442332   15.18404711645513
F          -5.28478172883597   -4.76930650575258   16.37829933650799
C          -5.54390721719087   -5.19597516063630   14.08631522738699
C          -6.06447926702204   -4.82647402677864   12.83090888296131
C          -6.83331244183352   -3.63177289727110   12.71787963255650
C          -7.36781261740493   -3.24125032475655   11.46873397594988
C          -7.14610981315586   -4.02454473749032   10.36616294224011
C          -6.38257088316618   -5.21833076429619   10.49158168937708
C          -5.84703593550621   -5.61818862902328   11.68176806651794
C          -6.31008207726512   -5.88936547840778    9.18166110060332
O          -5.71620055300982   -6.92002164822117    8.93504228583646
C          -7.10182495174076   -5.05970245385989    8.25509060640001
C          -7.57438393984690   -3.88907240307232    8.97591776706704
C          -8.28179697117912   -2.83053070991614    8.46917953778493
C          -8.68961297488653   -2.67080216155459    7.12770388936805
N          -9.05765592054631   -2.45642482099540    6.06092356351370
C          -8.69978163261872   -1.72189159220823    9.23655609913633
N          -9.07073321974874   -0.79524922451428    9.80320007102766
C          -7.39643222692985   -5.36436728414721    6.95576473940763
C          -7.05035830214877   -6.48787938720161    6.17605616148359
C          -7.55217161176277   -6.65778758215962    4.89806720672147
C          -7.16163834744866   -7.85451388396838    4.28026696146359
C          -7.50657664198786   -8.32772196194307    2.99025215402889
C          -8.41125123459146   -7.62153442510602    2.11050170809279
C          -8.34833361084491   -7.52932434159095    0.74756619905265
C          -9.42931410054307   -6.81014535064874    0.19697390526050
C         -10.33530673670320   -6.35944194289195    1.11437944099080
S          -9.84058426534008   -6.81800854362534    2.70644760113786
C         -11.57539395264016   -5.57569628807651    0.89239037922206
Cl         -9.58218015371166   -6.53630765611747   -1.49514385929450
C          -6.94741328402338   -9.54248209809111    2.61612201367656
C          -6.06291239487089  -10.28868165607018    3.44202793123283
C          -5.70605003276532   -9.80563234288887    4.71816066933593
C          -6.28817457662118   -8.60307590487856    5.11539321403746
S          -6.02405176944860   -7.82356438313841    6.64726283611961
C          -4.77838271934022  -10.50404322230058    5.58281663159753
C          -4.81227391027856  -10.61261067320035    6.94492969579602
C          -3.70594180895218  -11.31713111449867    7.46375828423161
C          -2.81154317626253  -11.74121709653171    6.52327683156482
S          -3.34650018543975  -11.27232610733958    4.94687714614561
C          -1.54425326573315  -12.48978321958941    6.71547170294127
Cl         -3.51311853448129  -11.61015516516142    9.14774734385257
C          -5.71857141701632  -11.52665399879367    2.85433765299613
C          -6.30957140361050  -11.73547630403142    1.63844813840974
S          -7.30181167468395  -10.39299555622476    1.13489126904312
C          -6.19641945509304  -12.90918011583685    0.84711971800040
N          -5.39624311284274  -13.89296465224775    1.13616923951964
C          -5.53173792724298  -14.88461111799393    0.25743773464681
C          -6.47775818130190  -14.69366606390561   -0.76640221279983
S          -7.21113139794522  -13.15043711127802   -0.59580956204393
N          -6.63653385368751  -15.69916951277950   -1.62558581598410
C          -5.84418531205332  -16.68684322877111   -1.33033166468610
S          -4.79971593214337  -16.42850815441697    0.08831166989428
C          -5.82099789523678  -17.91475023260709   -2.04399215599848
C          -6.68872902506042  -18.28820193766270   -3.03413532712010
C          -6.44940615532186  -19.59098147214666   -3.52425163331175
C          -7.19218555682279  -20.30896082131513   -4.48677382412277
C          -8.28927939734013  -19.72829714661364   -5.23019452993455
C          -9.43152477466859  -20.34701457370976   -5.65728862609801
C         -10.24289075090147  -19.50781408113927   -6.44831691087754
C          -9.73732206934671  -18.25453175190762   -6.64510622045731
S          -8.22314495468281  -18.09208846481945   -5.82679983462904
C         -10.31097420770267  -17.13814105938051   -7.43717835624275
Cl        -11.74191475975163  -20.03462677468591   -7.10881362019230
C          -6.78629515508477  -21.61696492436885   -4.72623037797816
C          -5.66552395845351  -22.21937045023889   -4.10031189091449
C          -4.93029162670460  -21.50486525492434   -3.13027793465351
C          -5.34871024670333  -20.20504544267433   -2.87116070258814
S          -4.64622258900792  -19.14904371517601   -1.67780306397480
C          -3.81336297996163  -22.11172616695170   -2.43827226123562
C          -3.72283046135176  -23.38024247504645   -1.93814306833326
C          -2.48081641074643  -23.63231596437066   -1.31793445084905
C          -1.61406051059095  -22.57708727927586   -1.34299175745646
S          -2.34412188191565  -21.22536829911829   -2.13884290200761
C          -0.23399463812160  -22.49446616149101   -0.80354571480639
Cl         -2.10711643803026  -25.14984624040577   -0.59415300035648
C          -5.40795129543745  -23.51010909996448   -4.61148042144137
C          -6.27982130274564  -23.90603144751176   -5.59253282647099
S          -7.51480237566993  -22.69282237201250   -5.88062706227697
C          -6.29192661317329  -25.17341226419670   -6.23287908729326
C          -6.95728065753884  -25.54929721849734   -7.35493011163966
C          -7.25459285482702  -26.98994175217502   -7.59544914219811
O          -6.73416589016167  -27.93871751289190   -7.05885598548547
C          -8.36612687035719  -26.98932256630476   -8.56987956019301
C          -9.10902860361817  -28.04110131489480   -9.02339034268292
C         -10.15915149807913  -27.79706668002311   -9.93673566656437
C         -10.42301199745764  -26.46197412103190  -10.36150127574521
C         -11.47915219628782  -26.22671415528505  -11.26471523999474
C         -12.23485068126220  -27.26707622022856  -11.72734138601422
C         -11.97139870875584  -28.58703154033211  -11.30879409433679
C         -10.95566381687185  -28.84782075757779  -10.43247610986869
F         -12.72903125993096  -29.58732533729536  -11.77811469353182
F         -13.23745056916653  -27.04152588276729  -12.58612644645300
C          -9.63055374120296  -25.39338738385097   -9.88363609675713
C          -8.61396933050195  -25.65520341939226   -9.00510260590713
C          -7.62712237351834  -24.77844333826610   -8.38383317419967
C          -7.21941412238102  -23.56478811348877   -8.86715753545253
C          -6.04924750186632  -22.91554082253393   -8.41625620052153
N          -5.06794673393110  -22.40185460839256   -8.11632833045024
C          -7.86213639100875  -22.88661212948219   -9.92212471537102
N          -8.36767656312229  -22.29165787899903  -10.76313237985219
H          -7.63599115011534   -1.94223570967744   13.80280588112972
H          -4.95966393337797   -6.09728118968733   14.18643992524190
H          -7.94533398496101   -2.33262767112332   11.41967052168568
H          -5.27048522116436   -6.52849745433141   11.74509286590500
H          -8.02599476198039   -4.66453007448814    6.41936990962841
H          -8.18558553762523   -5.92099942935116    4.43877797360226
H          -7.54470541557715   -7.92008395819008    0.15196652794917
H         -11.48241270987881   -4.58071567629071    1.32780791017544
H         -12.42886511555386   -6.06601095520557    1.35860206178948
H         -11.75977868585459   -5.47646322187271   -0.17430322582261
H          -5.60507400899249  -10.23837549401621    7.56473123071776
H          -0.68553258647583  -11.84651942651557    6.52140949040532
H          -1.49063308598153  -13.33562966557472    6.03222836106642
H          -1.48442362270334  -12.85107082528208    7.73921435723800
H          -5.08912029317033  -12.26949737627798    3.30553109882412
H          -7.47997188953071  -17.64162009142810   -3.36235600708123
H          -9.71682131297453  -21.34707404885686   -5.38844954869508
H          -9.85747106020950  -17.10253979690243   -8.42864829376239
H         -10.12624212379679  -16.18494846085269   -6.94673696838113
H         -11.38249322882197  -17.28258175974610   -7.55563017184243
H          -4.52302233860040  -24.09670493738784   -1.96282370367860
H           0.02039383484486  -23.42376805240203   -0.30021204214416
H          -0.14862231419915  -21.67096936263523   -0.09584846435281
H           0.48152100968656  -22.32077675727880   -1.60681042404356
H          -4.57045947176904  -24.11234530856942   -4.31036186986283
H          -5.77637622094211  -25.96963007218666   -5.70474156478439
H          -8.90037399325495  -29.04590788376925   -8.68889628955886
H         -11.69225009916750  -25.22293513340985  -11.59759305417740
H         -10.76727993743330  -29.86341212589112  -10.12133283785851
H          -9.85261114123830  -24.39058069993652  -10.21295878826573
