143
 SCF done       -296.229803126187          0.000687354083
C         -17.54326482956103  -17.28791433815447  -11.06117536707045
C         -17.46730669919632  -16.85644538391281  -12.35559645949162
F         -18.28733770150235  -17.36490635494228  -13.28439778487602
C         -16.52816959531243  -15.87452539529691  -12.73070714034495
F         -16.47544979539990  -15.47076764626145  -14.00720186426940
C         -15.67745971834991  -15.33798354744106  -11.80554498366263
C         -15.73043838782018  -15.76264752805464  -10.46365463217849
C         -16.68036072566500  -16.75441490003071  -10.08250892347929
C         -16.75344448459570  -17.19505937625262   -8.74142364345354
C         -15.89959057011338  -16.66272721384864   -7.81098270221869
C         -14.94894235514278  -15.68198692193209   -8.20271574450701
C         -14.85898347623351  -15.23092885685361   -9.48800386221073
C         -14.13465283459762  -15.28486282309635   -7.03705256285530
O         -13.29392617604220  -14.41082665285443   -7.03632267747767
C         -14.57400808767648  -16.16373044176708   -5.92550383901204
C         -15.73844028390173  -16.91188411955685   -6.38211628012281
C         -16.58878703654505  -17.66395083314932   -5.61645986859104
C         -16.51531036261229  -17.83501786812688   -4.21647537347749
N         -16.54813486387734  -18.01190342574926   -3.08240317839763
C         -17.71105974931835  -18.34819374880379   -6.13167598353611
N         -18.63338877801754  -18.93071688066826   -6.48843218536512
C         -13.96824640861483  -16.39111635017669   -4.72143497828317
C         -12.82240370647975  -15.81673769665629   -4.12662854225382
C         -12.03627554380238  -14.74417186636374   -4.47483613202450
C         -10.95127280246388  -14.53063401889938   -3.60572362453921
C          -9.95239492840800  -13.53279145142824   -3.70345956233630
C          -9.90998598825480  -12.57077704210896   -4.78417517487382
C          -9.55891188023280  -11.25071462081461   -4.70943360684860
C          -9.57516631568000  -10.61303484185790   -5.96635058604696
C          -9.91726696215445  -11.42812884208384   -7.00822227565023
S         -10.24149162560387  -13.02411419981152   -6.43323765983977
C         -10.03173267146528  -11.09543271999766   -8.45018985485906
Cl         -9.19100146962661   -8.94541752387322   -6.15540648914962
C          -8.98006866181496  -13.54075141623778   -2.71396430636719
C          -8.93949525896207  -14.48894209606475   -1.65491850735562
C          -9.95402548565716  -15.46540379314908   -1.53669778658247
C         -10.93638662835929  -15.45320607445188   -2.52334007791557
S         -12.25291645810792  -16.57714372141484   -2.64368424840693
C          -9.98597736522606  -16.40796866536475   -0.43753940591491
C          -8.96613505674092  -17.08240373217183    0.17417106256166
C          -9.41433274658815  -17.89222393402095    1.24050455332518
C         -10.76155154466922  -17.84391682881948    1.46316988315046
S         -11.51345266390586  -16.78327923288403    0.32588721811440
C         -11.55780251464717  -18.55122179605054    2.49631842600840
Cl         -8.34343968829138  -18.85146475904336    2.18019239647967
C          -7.81245730396656  -14.30671257231121   -0.82862471423667
C          -6.99516604702041  -13.28214482412325   -1.23575623016611
S          -7.62056278290879  -12.45179191330731   -2.64436713098991
C          -5.74989708179682  -12.93249631529428   -0.66563144644035
C          -4.98529797718728  -13.72682144399722    0.19681438294704
C          -3.72031338940416  -13.12885995511204    0.53438088432187
N          -2.86394232219986  -13.74943884847305    1.34888324242229
C          -3.20535445401167  -14.93930591164282    1.79065216474625
C          -2.26330751634917  -15.60706829590024    2.72161322742394
O          -1.23974063045677  -15.07934938254219    3.10505440730084
C          -2.67198268845449  -16.95373010553587    3.15673140597507
C          -3.78947631283221  -17.56046277033414    2.74160121858781
C          -4.74261115315269  -16.95593202977702    1.79593311822568
O          -5.69629376744992  -17.56010403959155    1.35193496673226
C          -4.42927729294386  -15.56315112339716    1.39447786585609
N          -5.30340804870930  -14.95114547631409    0.62661363467666
C          -3.52217473209315  -11.88458147869915   -0.08024859999832
S          -4.89855858710691  -11.47240026567239   -1.04624204838174
C          -2.35284863619296  -11.09771662781541    0.00834860485898
C          -1.19570132661060  -11.47743455135643    0.64190022950325
C          -0.15149620820128  -10.54528420594890    0.50836919461049
C           1.15826267417007  -10.65461458053071    1.02455607311676
C           1.59416649040555  -11.84546333222341    1.71833387341039
C           1.30990557085948  -13.15100431983637    1.42458904809577
C           1.88667314659520  -14.05129614165348    2.34134468101747
C           2.60449938182269  -13.45618273822695    3.34141509674301
S           2.59166077243568  -11.74041054673537    3.14597918482295
C           3.30751339270758  -14.09965229406286    4.47875403377708
Cl          1.70187061463218  -15.75049006684355    2.20896475149821
C           1.98215919768233   -9.55530805656372    0.82903135771859
C           1.57006490199660   -8.36596465797926    0.17352511479661
C           0.26201196993703   -8.26618966721308   -0.35853707949239
C          -0.55255358886537   -9.38209860079815   -0.20143472711188
S          -2.20194645289296   -9.52660713552085   -0.75335830319420
C          -0.22893088998803   -7.07012141981929   -1.00807034685974
C          -1.08459998537008   -6.98229025442594   -2.07072958361804
C          -1.41556251143148   -5.65049813345899   -2.39731919006015
C          -0.83936281972205   -4.71061797010280   -1.59133329329326
S           0.15371912995357   -5.47983923861215   -0.40240168438771
C          -0.97180242522398   -3.23331842677279   -1.64058546583859
Cl         -2.46553214589649   -5.26094946586460   -3.70463192207288
C           2.62250948838823   -7.43081862822799    0.09269316013715
C           3.79121826232138   -7.85007797362451    0.67992868685553
S           3.64681553953582   -9.47784624171377    1.31081146729354
C           5.01565389070778   -7.13375913106652    0.68747339203209
C           6.14982323544013   -7.39971500685104    1.38644678332686
C           7.45713335104696   -6.87671228097521    0.90016899220005
O           7.63504572478528   -5.97390507727373    0.11741241176097
C           8.46997765679893   -7.75574363012760    1.52299597923849
C           9.81593856191084   -7.80359954572008    1.30004261330423
C          10.59222525765841   -8.76462898911907    1.98591972499524
C           9.95605103964202   -9.66148114026759    2.89322498996184
C          10.73660366791215  -10.62359671505581    3.56529512734534
C          12.08415262927297  -10.69119609940004    3.34884388294574
C          12.71236632296111   -9.80280530472430    2.45290101246980
C          11.98335950003316   -8.85884231964609    1.78572728416080
F          14.03503888710461   -9.89313569715560    2.25914315748160
F          12.82368959939294  -11.60694322227666    3.98810767172956
C           8.56212585634565   -9.58100203821825    3.11373827420819
C           7.83117613512132   -8.63970023047880    2.44035850419657
C           6.41239788614345   -8.30323893271012    2.48961450296036
C           5.56185975707526   -8.56812459128589    3.52879304979138
C           4.31489463200373   -7.92051770606903    3.67454896213603
N           3.33567140938537   -7.34922085483046    3.84964668130657
C           5.87014805670540   -9.44093623623768    4.59037266097250
N           6.07076734072160  -10.17301960481083    5.45121962280117
H         -18.26898716599571  -18.03896090514102  -10.79081814677975
H         -14.96407868036697  -14.58769047588168  -12.10863090446534
H         -17.47964372422072  -17.94983886651607   -8.48738755729145
H         -14.12910578440338  -14.48227266265273   -9.75611525080017
H         -14.39704346427276  -17.18261690451461   -4.11715102550741
H         -12.25001016274292  -14.13640555478948   -5.33320422194393
H          -9.33881681473065  -10.73251846015833   -3.79471417203527
H          -9.90301501270902  -10.02528638936013   -8.59207408589187
H         -11.00753349959406  -11.39262868048278   -8.83136350355949
H          -9.27124795030418  -11.62089759437476   -9.02788531924011
H          -7.93556749616775  -17.05498084388907   -0.12869525955197
H         -10.91420715338629  -19.23237345681381    3.04703658277429
H         -12.36757721007500  -19.11521420496117    2.03578647025667
H         -12.00018915316942  -17.84042037324998    3.19410228056871
H          -7.58649971941862  -14.89892217604746    0.03685837897014
H          -1.99149691116473  -17.43905675615920    3.84345383289396
H          -4.04624384657974  -18.55614445853710    3.07764496192316
H          -1.13139840778716  -12.39279150663714    1.19921516315565
H           0.74766638534307  -13.46907229312721    0.56662485889765
H           2.59618107427321  -14.35264605683922    5.26618590147155
H           4.05644755554790  -13.42981844958108    4.89358660218706
H           3.78427713604838  -15.02116499569643    4.14863403759856
H          -1.44133220229284   -7.82489818589660   -2.63297047308113
H          -1.65476228514062   -2.95332136280635   -2.43854629881188
H          -0.00426220139392   -2.76634838460619   -1.82264328595826
H          -1.35443116286764   -2.85079017419807   -0.69497599595358
H           2.53530061003816   -6.46679407773266   -0.37366934976190
H           5.08771298367124   -6.32441558019444   -0.03233656457275
H          10.28273172029524   -7.11985884026801    0.60746926995022
H          10.27212794717960  -11.30910701191011    4.25674322002918
H          12.47898892307640   -8.18653086947940    1.10304767631784
H           8.10100470741406  -10.27349558429887    3.80009791998554
