103
 SCF done       -220.580275482324          0.000421631700
C          -3.78974199055834    2.42917318459879   -3.10789305032792
C          -3.29176435847944    3.41325316373996   -2.30103202340705
F          -3.32744496920032    4.69250118997470   -2.69835630832199
C          -2.73622852880672    3.09834300007167   -1.04477626479652
F          -2.25488675219680    4.08414879530798   -0.27464363403652
C          -2.68749355334208    1.80294285260155   -0.61186409997180
C          -3.19413239791548    0.76658752351160   -1.41975558957748
C          -3.75415863296133    1.08315422664394   -2.69110066196802
C          -4.26679152830933    0.05979668504454   -3.52090213647422
C          -4.22448709974138   -1.24063675285406   -3.09095917463473
C          -3.67250739022250   -1.54443896262982   -1.81762062650331
C          -3.16419047075803   -0.58046753153411   -0.99606140587075
C          -3.76204452943571   -2.99777496621781   -1.57430989341079
O          -3.35074024804699   -3.56856539075088   -0.58454349733273
C          -4.43877561556730   -3.56375318879832   -2.76110624627716
C          -4.66637222522089   -2.48749480311621   -3.71114541592041
C          -5.17143400165832   -2.58490975891607   -4.98324659448644
C          -5.56206624176873   -3.76632707033441   -5.64830808074158
N          -5.89470894079292   -4.66918554181788   -6.27672724174108
C          -5.35734169206966   -1.48210867176028   -5.84407970783730
N          -5.53948749695276   -0.63413360137876   -6.59645264495480
C          -4.86140891821521   -4.85271049965567   -2.97000630935928
C          -4.76881680434485   -6.01252022598719   -2.18479738141405
C          -4.19165725050880   -6.28901382332093   -0.95187299635486
C          -4.38382431479149   -7.60417020956658   -0.56286433622628
C          -5.11057104565804   -8.37834105694371   -1.49306932705548
S          -5.55193087962231   -7.44820334915768   -2.86733699696363
C          -5.28729918711217   -9.68668284786587   -1.04880595034273
C          -4.71133882684640   -9.90896819648658    0.22307964838381
S          -3.91560028663660   -8.50105110318429    0.86440324101268
C          -4.98919213594520  -11.21992288041040    0.58132436781595
C          -5.70719505370225  -11.77657429559426   -0.48390538312694
N          -5.88005250892712  -10.83549162548618   -1.46494608521577
C          -6.66700175269425  -10.93863478666928   -2.66255854371817
C          -6.18875622933382  -13.13215956521555   -0.56417516641162
C          -6.74073934461654  -13.76451520189005    0.56644660396718
C          -7.22062349406526  -15.11620124338110    0.52058789073251
N          -7.76121185671214  -15.66542671705145    1.62696543541412
C          -7.84695474500543  -14.96948997498601    2.71280494233498
C          -7.39075478740818  -13.62411722913408    2.74942508397921
N          -6.86635776878361  -13.05890904274071    1.71417476256725
F          -7.50145780055359  -12.90278840841153    3.86192700525677
F          -8.38377252478040  -15.54777883400973    3.78331733215401
C          -7.15748119602887  -15.91355438513663   -0.64330607099785
C          -6.55928166676873  -15.29615486464512   -1.76590628372621
C          -6.09282105730781  -13.92634162774604   -1.72338436349673
N          -5.52410522185886  -13.56777568686293   -2.87899630816658
S          -5.58289521989428  -14.79879714097203   -3.90385923896586
N          -6.32495623282048  -15.85524037856834   -2.95377830173345
C          -7.66388596960002  -17.24122001790859   -0.66131923147903
C          -7.65393779936814  -18.12633635240386   -1.72912333090454
C          -8.25964223503910  -19.33459659253799   -1.41419405339144
C          -8.74498580402576  -19.38989028084109   -0.09690584458418
S          -8.42972963213677  -17.92051107128540    0.75856753430393
C          -9.36202137475448  -20.61205710510255    0.17047940336767
C          -9.33725279076232  -21.48878044549325   -0.94537661693861
S          -8.55474388599133  -20.79315394283115   -2.33498964528760
C          -9.95779611673449  -22.66307268200924   -0.56997031873698
C         -10.37204529835391  -22.48812092582452    0.76639346218055
N         -10.00801776935376  -21.22396838947295    1.18416605869599
C         -10.19266032451998  -20.67884605113329    2.50096722456274
C         -11.15827491055673  -23.33396141428479    1.57297124845775
C         -11.42047433882344  -24.66698509046342    1.42949480740013
C         -12.63515051946212  -25.23469520703483    2.06858082626209
O         -13.34420469545895  -24.69140189675530    2.88589126101232
C         -12.81388675358679  -26.56499237164855    1.45131076106944
C         -13.83885476503058  -27.45269929800332    1.60466335714114
C         -13.80899142716792  -28.66772385994726    0.88337718938166
C         -12.71461409841058  -28.93664928976044    0.01108692206265
C         -12.69410385938642  -30.14781393483216   -0.70888812176738
C         -13.71009993757169  -31.05093213933806   -0.56715115159853
C         -14.79117312103615  -30.78447181231950    0.29649946944569
C         -14.84094275080145  -29.61803962205456    1.00718981331904
F         -15.77439442432424  -31.68728508515055    0.41505163480951
F         -13.68755032463874  -32.20245448312693   -1.25136010757091
C         -11.66325407683966  -28.00028903880754   -0.12234363132783
C         -11.71003209910950  -26.83389841436932    0.59218390509158
C         -10.77098429918108  -25.71761132146598    0.68343982535976
C          -9.44024253240148  -25.77340761741189    0.35281153978699
C          -8.51559833685153  -24.77750018024106    0.72324807737113
N          -7.73268283053192  -24.00686052507162    1.05612170994992
C          -8.83950135558180  -26.86677924050295   -0.30109762407396
N          -8.31340459320775  -27.72643579021380   -0.85082724079441
H          -4.21061623981465    2.68729809767533   -4.06714482157780
H          -2.25955562827408    1.57806127675699    0.35250930401902
H          -4.68414986517517    0.33588164532531   -4.47524536410227
H          -2.74824295706290   -0.84313550811847   -0.03524742118287
H          -5.38731336677349   -5.02569162683426   -3.90171701565594
H          -3.66533460877194   -5.54664993766792   -0.38046822298549
H          -4.70359112288554  -11.73274815116709    1.47517788481871
H          -7.54554081439763  -11.55672263799832   -2.47827316241151
H          -6.08632638454533  -11.38614517039682   -3.47123871264806
H          -6.98605736492581   -9.94013681194144   -2.95967453591258
H          -7.22167984284798  -17.87802851351711   -2.67976058948984
H         -10.14291733048120  -23.52465113892881   -1.17900100807303
H          -9.74284695231097  -21.33209339343036    3.25046279926731
H         -11.25520277465670  -20.55919085283856    2.72474366315088
H          -9.71223132262882  -19.70309182150713    2.54512867482013
H         -11.72187349139256  -22.85400059095931    2.36728530537724
H         -14.66179728998427  -27.23240086777502    2.26742466089147
H         -11.87216376980198  -30.36920276827126   -1.37165888117631
H         -15.67547833969164  -29.42892768275123    1.66410672260188
H         -10.85008870786613  -28.22565123615398   -0.79393136364122
