107
 SCF done       -224.413189194146          0.000279517408
C           6.97047045086174   -5.02501982797600   -0.52313429945716
C           7.96409428502952   -5.88080289617257   -0.90706137577125
F           9.24854501862282   -5.54098622162706   -0.73841033136064
C           7.65303073957821   -7.12882371154335   -1.48412627719647
F           8.64784008906172   -7.94767752770365   -1.85147530577427
C           6.35192756922195   -7.50339187762214   -1.66920253980546
C           5.30505924210708   -6.64279461621162   -1.28528835883315
C           5.61788822042598   -5.38101003688442   -0.70098688772529
C           4.58440550555817   -4.50035697931540   -0.30978082577867
C           3.27713258655414   -4.87087510844516   -0.49361706890985
C           2.97486636239879   -6.13348424282956   -1.07581253494196
C           3.95168431559136   -7.00127678363982   -1.47033420830118
C           1.51118690569431   -6.28727673562565   -1.18027975688494
O           0.91492288654678   -7.13785053843367   -1.80123779247522
C           0.93815357086308   -5.09124406298723   -0.50086403550440
C           2.02710327000171   -4.17953980004274   -0.19028113164789
C           1.91985500661667   -2.90935814339351    0.30748781487575
C           0.70569370008870   -2.23571849486741    0.56139991801175
N          -0.23811771958792   -1.61938713612584    0.77837337402165
C           3.02240714750508   -2.08056819985463    0.60752497054070
N           3.87580469365632   -1.35899642862465    0.86850131483195
C          -0.38742291404113   -4.91349121050936   -0.27952308812192
C          -1.36141768974160   -5.97535487761570   -0.35745019089164
C          -2.63785187144609   -5.76381918276529   -0.87239165271826
O          -2.93692067139544   -4.53527045150089   -1.41525139503274
C          -2.22495001616169   -4.17223092089722   -2.58325229493542
C          -3.63349395224105   -6.78533739895394   -0.85873827590709
O          -4.91369345825519   -6.64694126872729   -1.25167160551939
C          -5.43478691868561   -5.44753476721642   -1.78303978690135
C          -3.32547456021155   -8.05317518813125   -0.36209969838761
C          -2.04674323495345   -8.28515521283304    0.17567851707821
C          -1.06260871697517   -7.24287598742660    0.19422749826641
N           0.06639017160572   -7.62387752913267    0.78553959306626
S          -0.08302146788395   -9.16566597937563    1.21881884314350
N          -1.58199662381168   -9.41925791244579    0.70259607354181
C          -4.28587597731950   -9.14990063172003   -0.40926194211678
C          -4.56500654133704   -9.91356736337432    0.73467427668849
C          -5.39920064293377  -11.08217194666928    0.67059345559820
N          -5.62958693830738  -11.81466348739687    1.78843353499199
C          -5.09345694932888  -11.42067668215408    2.90148940038224
C          -4.31509118031188  -10.23634207389989    2.97516395845488
N          -4.06548309649992   -9.51151522794915    1.92862498873222
C          -5.99827818027645  -11.49278971506944   -0.53063224769755
C          -5.76337074470257  -10.70440292262347   -1.66015327971866
C          -4.90518286669399   -9.54024743793896   -1.60115029266405
N          -4.75800430003933   -8.97697738542664   -2.80821532987957
S          -5.61052774021181   -9.81018300957362   -3.87266572887712
N          -6.19350966054319  -10.94112335278925   -2.90667359457858
C          -6.90694382519040  -12.63672054389047   -0.54739764201341
C          -6.59413135437365  -13.89787064947538   -0.06911327431906
O          -5.32167276163302  -14.31802827170735    0.17748186587682
C          -4.23320397289589  -13.74101365161739   -0.50765225840266
C          -7.61344869464212  -14.88919059030138    0.13725372718655
O          -7.39702617318385  -16.10070490877142    0.68172820167148
C          -6.19115690348318  -16.48032397020447    1.31717609007157
C          -8.93199898846361  -14.67366259945711   -0.29296022838486
C          -9.21519552256871  -13.43454012433933   -0.92809693926979
C          -8.22642730962655  -12.40293466309524   -1.00133492888382
N          -8.70902164215996  -11.27768115665179   -1.52021135916049
S         -10.25218347289078  -11.51333378667228   -1.90916098171678
N         -10.38598166357783  -13.04300145903246   -1.41738984769895
C          -9.99972941024688  -15.61819622762126   -0.22673837005233
C         -10.25698927788717  -16.68226149310557    0.58316422532756
C         -11.25362418387989  -17.69177840628644    0.12499216485379
O         -12.01526937277920  -17.59269977423141   -0.80830850775618
C         -11.07298239121798  -18.85498812944050    1.02032840326372
C         -11.66006000207399  -20.08505068213127    0.95879119109859
C         -11.30799927386606  -21.06310627976403    1.91661392573191
C         -10.34901039139562  -20.74354029359404    2.92082219028119
C          -9.99628083214547  -21.72573140344563    3.86794867937270
C         -10.57018067800899  -22.96511242747657    3.82206196418987
C         -11.51975035691363  -23.27926316822303    2.82990580931174
C         -11.88216774385135  -22.34890351266287    1.89658480090986
F         -12.06582566763825  -24.50362348281840    2.80803373135200
F         -10.23229886013858  -23.89729877687340    4.72417680374639
C          -9.76506108130620  -19.45635431445631    2.96440738663217
C         -10.12506378708940  -18.52363915919448    2.02908855609113
C          -9.71484372065823  -17.13404806747782    1.84026042553670
C          -9.09908377669500  -16.35491658255551    2.78615425292950
C          -8.95016769088865  -14.95980240890398    2.66888240779824
N          -8.82225195488169  -13.82022425722354    2.61936152560745
C          -8.59227342443365  -16.84711740834280    4.00454826093066
N          -8.12896658950605  -17.20156300637487    4.99387099444040
H           7.22604566659370   -4.07356849005239   -0.08349413178075
H           6.13036492922292   -8.46140194480005   -2.11285900758472
H           4.85477744646606   -3.55282246369630    0.12728991618883
H           3.69379973450706   -7.95070330185264   -1.91427518750032
H          -0.77201310609728   -3.94804150632481    0.02662778704036
H          -2.52212689026017   -4.80177614165461   -3.42979245055402
H          -1.14329083840310   -4.25134698814139   -2.44768337175895
H          -2.49298110092971   -3.13667982252701   -2.78354373881205
H          -5.28663453106633   -4.60341878992628   -1.10776966602618
H          -6.50115617239958   -5.64027197036570   -1.90188133469742
H          -5.00237447883691   -5.21676348205500   -2.75918877901891
H          -5.29061474097054  -12.02371692519949    3.77729201134039
H          -3.91997239213668   -9.88396777700545    3.91858204785608
H          -3.79824401248482  -12.90621587344250    0.04706243831027
H          -4.51923955247249  -13.40338946717186   -1.50625836451758
H          -3.48736114746598  -14.53372838597481   -0.59102617441548
H          -5.85621343414577  -15.72633846625455    2.03007127006632
H          -5.39951778484328  -16.67651169194223    0.59287685885347
H          -6.43203753964220  -17.40437640888325    1.84533427861335
H         -10.74261998652273  -15.47214949603306   -1.00772721782870
H         -12.38267637271757  -20.31097509486759    0.18948287262288
H          -9.27343098105860  -21.50100037733338    4.63665491173646
H         -12.61056789905050  -22.60492658968915    1.14320067036803
H          -9.04019916762412  -19.24364440998622    3.73408671776019
