145
 SCF done       -294.772833837312          0.000982273502
C           0.28452152229360    1.66319568247400    2.34887006977222
C           1.43902553685348    2.00247035942391    1.70130654537014
F           2.08658219936892    3.12948193717853    2.02501489757430
C           1.96353139230557    1.17452947793364    0.68831007921594
F           3.09846492224840    1.53143536971474    0.07187986564431
C           1.32510769139918    0.01865205679632    0.33619213215061
C           0.13336695218715   -0.35861019179592    0.98519961131654
C          -0.39791381377269    0.47727932703417    2.01001841037218
C          -1.59216161234994    0.11918451343987    2.67598100192918
C          -2.23366832090963   -1.04113445715999    2.32926885381681
C          -1.69200583144329   -1.87177843178531    1.31147729780746
C          -0.54407275541009   -1.55050485615597    0.64622906772962
C          -2.54388259123542   -3.06472486260163    1.13755673304963
O          -2.37424744834931   -3.93169455431264    0.30637540267748
C          -3.59547630912047   -2.95997906365472    2.17809526372436
C          -3.45648285158593   -1.66309018582647    2.82663857121253
C          -4.33722387161973   -1.07635709698528    3.69615046295419
C          -4.14219383855526    0.19769722588691    4.27184845220848
N          -4.04254905229152    1.22252173235266    4.77882350813899
C          -5.57540574819354   -1.61149510441216    4.11385775764498
N          -6.60567367526899   -1.95134359165220    4.49085866130427
C          -4.47574607283770   -3.91659425832472    2.60200806053878
C          -4.74971291372890   -5.21512873061515    2.11873185497266
C          -4.35879645592927   -5.88486684454903    0.98394384974755
C          -4.87084984755429   -7.19215748914118    0.89062940214198
C          -4.65350104120075   -8.12725575622875   -0.14970841087082
C          -3.96811529416759   -7.73959901306448   -1.36079031909320
C          -4.06648966856178   -6.55207846170569   -2.03355307739598
C          -3.25982866628570   -6.51337968204370   -3.18832546414308
C          -2.53767729820239   -7.65188960685702   -3.41099340659509
S          -2.86525230889772   -8.81565497350724   -2.17459452077693
C          -1.58966473008558   -7.94918768250575   -4.51330196063485
Cl         -3.20210499580112   -5.13924191610747   -4.22223104176056
C          -5.13899992672238   -9.41206188004340    0.06429850813243
C          -5.88953801111158   -9.77118363351731    1.21385475570091
C          -6.20801536258799   -8.80855438369262    2.19622646482416
C          -5.65223905094873   -7.54628532232223    2.02499069565303
S          -5.80652118845877   -6.20994990959364    3.12107627432167
C          -7.07619349076194   -9.13831518150224    3.30654779928489
C          -8.20098638146034   -9.91431765922000    3.28292091367697
C          -8.81219184915558  -10.02532991083992    4.54964519256248
C          -8.17144714821939   -9.34942530629044    5.54749108362543
S          -6.77722273425953   -8.54094196224453    4.91613686138217
C          -8.53548765668963   -9.24200582971827    6.98239645414194
Cl        -10.24819359538501  -10.94485375986929    4.79792783862654
C          -6.20634582184329  -11.14751677527825    1.22362142504936
C          -5.76006536212657  -11.82058663810597    0.12001078421446
S          -4.94227720852744  -10.76797537359418   -1.01267128741448
C          -5.86322575076596  -13.22333211869610   -0.17364876773355
C          -6.13097892786775  -14.20827010044610    0.77065797718971
O          -6.33628802841740  -13.84135722742212    2.07796019289357
C          -5.32999954117101  -14.25556647035326    2.99263558286246
C          -6.21101058655134  -15.59165595877507    0.42755250730169
O          -6.48619906243740  -16.51786943997391    1.39968929770974
C          -7.75778448642399  -16.43423073463422    2.02841447508219
C          -5.95345045372016  -16.07586410502134   -0.85068564998570
C          -5.65574068037062  -15.09221038848776   -1.82950520086389
C          -5.62843715402065  -13.69335892266990   -1.49149286656821
N          -5.34173695367121  -13.02956265747718   -2.59231650351344
O          -5.20196452983483  -13.93807207385953   -3.54994621337322
N          -5.38661767441640  -15.18353417590097   -3.11705216687199
C          -5.99869905458126  -17.47018496589818   -1.17199651362470
C          -5.82328493011749  -18.03084820067237   -2.40811691210105
C          -5.94162667540985  -19.43799206800340   -2.41102806105433
C          -5.86179656774034  -20.31292255776371   -3.51638994374686
C          -5.66040091903080  -19.82440875774589   -4.86440083086262
C          -6.20462286291431  -18.72509094995989   -5.46681870327305
C          -5.75487582209592  -18.55565844711226   -6.79275187711352
C          -4.86780713130068  -19.50486338164390   -7.21532708575201
S          -4.57928387634024  -20.65174499193513   -5.95666667124623
C          -4.19133825209241  -19.61549411932070   -8.53230371933042
Cl         -6.28374608815608  -17.26215743592963   -7.79651650420727
C          -5.96505867950866  -21.66712383606548   -3.23232744549606
C          -6.13788471830709  -22.19116823114071   -1.92480455188071
C          -6.26081738694387  -21.31240207393276   -0.82660476918589
C          -6.15730367062216  -19.95251498812245   -1.10669717614537
S          -6.28906920036650  -18.66885068325027    0.06286011891999
C          -6.49932345735452  -21.77639889619932    0.52309877079662
C          -6.01883175395985  -21.24982464277534    1.68915605444283
C          -6.50463687114575  -21.91760963994190    2.83261641538558
C          -7.36393483134649  -22.94483290784791    2.56772352061208
S          -7.57570399441927  -23.10828697371349    0.85851856556440
C          -8.05058800429534  -23.85397616889209    3.51893955828081
Cl         -6.04716717046021  -21.45621349763962    4.42716065417456
C          -6.13796811167277  -23.60233331493324   -1.92627180154915
C          -5.98864768093856  -24.16028537735748   -3.17096839801363
S          -5.91083654675351  -22.93355858068431   -4.42042190917740
C          -5.97875438722883  -25.54898729849239   -3.46097737583056
C          -5.60553235240407  -26.17353840036929   -4.60860698996065
C          -6.10681120370094  -27.54427196334547   -4.90239606102980
O          -6.58942577454295  -28.32729120830728   -4.11879312072932
C          -5.95202633519212  -27.69912293480187   -6.36477399511062
C          -6.37320851573054  -28.72000649609786   -7.16709316863030
C          -6.14350276415316  -28.63968339780164   -8.55894588022502
C          -5.48185617809913  -27.49643778815982   -9.09499198383442
C          -5.26564408623888  -27.42006971983011  -10.48569533146787
C          -5.68252262316736  -28.43143695622826  -11.30461175973750
C          -6.33349926809034  -29.56283630354038  -10.77307660593332
C          -6.55963178258035  -29.66606860446530   -9.42926710998852
F          -6.73143851234971  -30.53940851174903  -11.59987927174629
F          -5.47575143793024  -28.35640697740264  -12.62606279111642
C          -5.04597169817300  -26.45965248189453   -8.23874569776110
C          -5.27399454790564  -26.56233741238114   -6.89284875737686
C          -4.90275564409016  -25.69244812381868   -5.78190751693664
C          -3.88296622701920  -24.77892289798036   -5.78849471043560
C          -3.33173468090859  -24.24438575586366   -4.60284926019580
N          -2.81630752004880  -23.86136547409910   -3.65178549387392
C          -3.23115660875124  -24.33759469358166   -6.95615411816774
N          -2.70718327824165  -23.91656228827924   -7.88691077401656
H          -0.10380810103946    2.30885599661305    3.12101389070668
H           1.73903376497910   -0.60445288698469   -0.44105633605881
H          -1.96432291904051    0.77064450079093    3.44974524059184
H          -0.15788740044376   -2.19946982592376   -0.12504015829804
H          -5.05449234663497   -3.67064231948116    3.48520966495556
H          -3.68990730821908   -5.45395524080179    0.26332157288737
H          -4.72063186397202   -5.74903682726890   -1.74970117288068
H          -1.60552884149892   -7.14010222184235   -5.23925128130455
H          -1.86016700768464   -8.88015555972538   -5.00916960452797
H          -0.57559807591567   -8.05683952510738   -4.12855694021790
H          -8.61120396939172  -10.35391812065379    2.39289643408719
H          -9.37099862771776   -9.90255184153432    7.20049071801336
H          -8.82276970439604   -8.21946135559399    7.22708193880234
H          -7.69134036722173   -9.51239487894119    7.61494718539012
H          -6.72847654978065  -11.62970934829054    2.02688997143865
H          -5.68036425430383  -13.94478022479028    3.97474790793492
H          -4.38350195809347  -13.75559284952065    2.76567944005896
H          -5.18194277996357  -15.33717590726234    2.97783893296936
H          -8.55468828152200  -16.61563916812342    1.30147795841032
H          -7.91426718451756  -15.46567629555700    2.50533135196181
H          -7.76230090565311  -17.22416449921641    2.77630727524068
H          -5.59584041963863  -17.43957502053260   -3.27455907652948
H          -6.93042743465440  -18.08073341470694   -5.00698609474622
H          -4.90927995191165  -19.45996952144203   -9.33637240950547
H          -3.73199310527823  -20.59424027841644   -8.64230308477880
H          -3.41562614348855  -18.85458655869962   -8.62568637652479
H          -5.31396815719028  -20.44175874203821    1.74186996831148
H          -7.89661339239113  -23.50338282108232    4.53643474984436
H          -7.65587198412093  -24.86664442383343    3.43413297772477
H          -9.11883956482504  -23.89282396823088    3.31147329753327
H          -6.19756399145188  -24.20336870829104   -1.03752523316692
H          -6.40652216007588  -26.18985410029321   -2.69623551658422
H          -6.87592917544230  -29.57752150699389   -6.74637435572851
H          -4.76565926887914  -26.56276368162417  -10.90854600682774
H          -7.05964529655028  -30.53822142446259   -9.03805406494396
H          -4.55108017520463  -25.60224902568800   -8.66679981434312
