129
 SCF done       -260.854052518051          0.000726956503
C         -10.76424017733306    2.79729908688710    2.49407968048890
C         -11.50850397032120    3.29677357732629    3.52572197078049
F         -12.17351506069505    4.44904640326077    3.37973148604676
C         -11.58621126086413    2.60780185700859    4.75336910231746
F         -12.32324890139221    3.12074883509276    5.74602864637524
C         -10.91793639151173    1.42872443389699    4.93225465140926
C         -10.14109326665285    0.88910772213215    3.88899206155397
C         -10.06194955009294    1.58486171910442    2.64741060413181
C          -9.28522867487122    1.06559347116480    1.58700112505118
C          -8.61109923439705   -0.11445252110057    1.76300003051038
C          -8.70365097087634   -0.80811627657370    3.00277078573954
C          -9.43895803102453   -0.32708581874013    4.04673199686770
C          -7.90525019077133   -2.04877379841372    2.92870503618885
O          -7.60470056682457   -2.77655675402217    3.84681336792355
C          -7.47455092537966   -2.15133058743932    1.50841291448000
C          -7.73630799893224   -0.87256154423827    0.87341418439801
C          -7.20671607656309   -0.40156676905552   -0.30153153169202
C          -6.20999761502713   -1.01599314998058   -1.07932831941689
N          -5.35590449515970   -1.38303157400075   -1.75754281392993
C          -7.53184416689498    0.85755867778436   -0.85517466009600
N          -7.76627184707551    1.86174085386959   -1.35781532777451
C          -6.96883680817172   -3.24938902971799    0.87806605964834
C          -6.88683014945421   -4.59083338625607    1.36612540604749
C          -7.78228673982821   -5.05770355925115    2.43508676124224
C          -7.27689998471235   -5.81226253908007    3.49259111819682
C          -8.11961344537955   -6.32599747144295    4.45512848794539
C          -9.48981718745493   -6.09095239477691    4.37475124957400
C          -9.99706543532336   -5.31585628435414    3.33338817886669
C          -9.15192319545360   -4.80396967402476    2.37376638989051
C         -10.43378585605716   -6.64598032811588    5.36858962908593
O         -11.62548887607259   -6.45819636984341    5.35776931089285
O          -9.83941610396128   -7.40295846516466    6.30229202418489
C          -6.00347353725436   -5.47010553341248    0.77850926251705
C          -4.98293857330526   -4.96582317297799   -0.13665546403634
C          -4.27851358014523   -3.79821205709789    0.16324723469637
C          -3.47192225206250   -3.20835466690668   -0.78645309201889
C          -3.34268203150318   -3.78788723788614   -2.04464359835526
C          -3.95498999630451   -5.00744053993864   -2.31306929676249
C          -4.77325453759770   -5.59066639850683   -1.36831681782067
C          -2.59809758821332   -3.06510587676509   -3.12837776157572
O          -1.73216330782027   -3.56760462110710   -3.78964968835098
O          -2.99628150087417   -1.80476664420101   -3.30376279474808
C          -6.02935870050376   -6.89937558062718    1.01500757450347
C          -4.82486575746246   -7.61823920585406    1.17527237221881
C          -4.81045817307944   -9.03719799627394    1.37917165033953
N          -3.62731513312438   -9.68959601334932    1.45690216483889
C          -2.52915772700201   -8.99683259433872    1.39886869176441
C          -2.54769827276142   -7.58499453801859    1.29534032884407
N          -3.66188431660913   -6.92680816083811    1.18229154807016
C          -6.00081954046846   -9.79448767306628    1.44888011363668
C          -7.19768535299056   -9.07901149573979    1.28228413887881
C          -7.21223915179345   -7.65245392570410    1.05275005144720
N          -8.45918094415587   -7.19964526119964    0.86700211644556
S          -9.48583473073741   -8.41557026226578    1.02745941258225
N          -8.43627896939166   -9.58013183726172    1.29920121754727
C          -5.95934500641163  -11.21906223042099    1.71682204066745
C          -4.90052889608966  -11.67047237210548    2.63611872934305
C          -4.06624668456473  -12.73713130775411    2.29989989350625
C          -3.15630323996517  -13.22411009204407    3.21070311751776
C          -3.03971608561009  -12.64735944305893    4.47574270508991
C          -3.83196921906132  -11.54683468131235    4.79558215599225
C          -4.75253683133624  -11.06657722081395    3.88419094191246
C          -2.12329850846742  -13.30103570725292    5.45037132799216
O          -1.81525888177820  -14.46043666456228    5.36472749347665
O          -1.66673683449743  -12.54607428786881    6.46141473506050
C          -6.82460427485176  -12.11336123768692    1.14469155425470
C          -7.67399872449649  -11.75040842499181   -0.00101921503403
C          -7.16375153287585  -11.00175573973294   -1.06247423895280
C          -7.97224994425885  -10.66446399447802   -2.12582468058827
C          -9.30204506524175  -11.08276380189562   -2.15609962741483
C          -9.80487909258282  -11.86284283815275   -1.11758555760466
C          -8.99281977186662  -12.19981381709472   -0.05454982145503
C         -10.13973312165716  -10.67655675534225   -3.30597538135574
O          -9.77600236287749   -9.93764369340452   -4.18706876073350
O         -11.37196308169915  -11.20480005130253   -3.28073263236658
C          -6.85945557527784  -13.51318439595523    1.48908509775392
C          -6.69415518800222  -14.12642734713613    2.68552560609605
C          -6.25503668442062  -15.55652872073868    2.70353754730514
O          -6.37791126916720  -16.36160896840693    1.81338736571055
C          -5.56603140473552  -15.71275135845631    3.99809216123826
C          -4.77751157724144  -16.74027492434491    4.43108911783910
C          -4.15658574324028  -16.64496016677930    5.69577618535191
C          -4.39400003277637  -15.49843745360572    6.50866719091331
C          -3.76227333739662  -15.40450383930757    7.76417001196279
C          -2.92140654206804  -16.39478607751643    8.18654678545067
C          -2.68404335002448  -17.52615479683885    7.38015837688414
C          -3.29331832903920  -17.65319178420250    6.16364435996813
F          -1.86018402775801  -18.48326710665076    7.82267756181970
F          -2.32022290325760  -16.30327392754255    9.37787295284388
C          -5.22671738776384  -14.45805735629008    6.04174214581890
C          -5.78567131600897  -14.55214823827708    4.79482082225009
C          -6.60581289333799  -13.61653850345996    4.03891977763458
C          -7.28799728635907  -12.54372892718616    4.54167164452580
C          -8.24159985765604  -11.80930229187242    3.80672135470726
N          -9.07833575547836  -11.21919513823296    3.28878823068664
C          -7.16254188715845  -12.08793979478756    5.86942784138193
N          -7.06017583218012  -11.65035877869207    6.92556253433118
H         -10.71374718700669    3.33783234693450    1.56178298305261
H         -10.98816921215601    0.91371371835978    5.87747287805967
H          -9.25036317238293    1.61273712796572    0.65896962443926
H          -9.48825464753326   -0.87010719518599    4.97814520117868
H          -6.64260903657924   -3.11426412819979   -0.14775216326799
H          -6.21159318737579   -5.97825748316331    3.56232272697152
H          -7.72831672058702   -6.90927300102132    5.27396130671934
H         -11.06082223377760   -5.13599395451619    3.29428759568681
H          -9.55052935676159   -4.22391642969723    1.55441316629117
H         -10.50286950906138   -7.74359243661767    6.92238776195321
H          -4.37424149975869   -3.35917398194605    1.14509241708074
H          -2.94661106577434   -2.29238396340802   -0.55765434829913
H          -3.81451784755550   -5.46462197728969   -3.28058910324459
H          -5.30232253814705   -6.50463136511011   -1.59659630014599
H          -3.78027472807447   -1.58038406593218   -2.75900016804634
H          -1.60192280636300   -9.55110540731585    1.44391632005978
H          -1.63672436187261   -7.00317720738421    1.30715667997031
H          -4.14319754680461  -13.18274340184727    1.31990133736795
H          -2.52452109056365  -14.06533957341387    2.97034384982096
H          -3.78357338606334  -11.08289903434411    5.77219549259182
H          -5.38471322000419  -10.23079846809358    4.15050082074645
H          -1.94081760409618  -11.62164792072532    6.39330357739864
H          -6.12840409042829  -10.69256677766955   -1.04878534674416
H          -7.59557809866850  -10.07902708873173   -2.95106988497322
H         -10.83022714161575  -12.19508086133252   -1.15065695489308
H          -9.38574206531303  -12.78072042011355    0.76550780500866
H         -11.87216009470592  -10.90964352427032   -4.05757857815774
H          -6.98632986244495  -14.18963742443797    0.64735197078012
H          -4.61587485266750  -17.60778315198913    3.80951867301549
H          -3.92812195924743  -14.54323567684431    8.39243469938920
H          -3.09744415957573  -18.52366723837201    5.55746444008341
H          -5.37945354673019  -13.59336282581808    6.66823309628459
