111
 SCF done       -226.332867083852          0.000475172081
C          -3.98634091036343    3.44892355668021   -1.81530475133513
C          -4.47167810801254    4.46117770795492   -1.03591967658194
F          -4.33125736428756    5.73633124704543   -1.42328155587222
C          -5.12437590959152    4.17978185677941    0.18075430664924
F          -5.59110800737526    5.19245598595387    0.92494121716856
C          -5.28300272298787    2.88915718691830    0.60145390582669
C          -4.79465150409743    1.82419517423977   -0.17995108857828
C          -4.13362396892829    2.10714040100348   -1.40996562652171
C          -3.63348587616448    1.05458320998064   -2.21077964963528
C          -3.79259667884697   -0.24107638125925   -1.79526338048214
C          -4.46059530462075   -0.51317836031222   -0.57135822755936
C          -4.94960957956211    0.48025187111050    0.22633792582360
C          -4.52507316568704   -1.97284320301264   -0.35742464044386
O          -5.00844136558581   -2.51432606173210    0.61740985876584
C          -3.90685585252456   -2.58209506271263   -1.55335725822557
C          -3.39113656591314   -1.51328393444343   -2.39050177321596
C          -2.61010766068678   -1.63525378759185   -3.51219373594431
C          -2.12236627017328   -2.83740962692204   -4.06678275668560
N          -1.66304752503347   -3.75800911545806   -4.57854121878109
C          -2.14050323276277   -0.53962685085744   -4.26692508140748
N          -1.72872268808396    0.30288045791928   -4.92952961560241
C          -3.87819399513074   -3.90563406829119   -1.92565019345419
C          -4.30197658314896   -5.07074747920106   -1.27301215098545
C          -4.80608617745009   -5.31267260161796    0.00765161135790
C          -5.09010013106465   -6.64266552792423    0.21920448780474
C          -4.80788129582739   -7.45538170581247   -0.89589654891286
S          -4.17860327182540   -6.56800773176002   -2.20971517124310
C          -5.14605601895768   -8.78640504616254   -0.59299628749810
C          -5.64641187650764   -8.83978100379231    0.71758207125616
C          -5.64245183427617   -7.47086533408230    1.35493596135398
C          -7.05648884256849   -7.02387594730220    1.73521801208952
C          -4.71677322773657   -7.42712388397250    2.57444176989159
C          -6.02115770411089  -10.11260998789603    1.09432188795705
C          -5.81476438478674  -11.05111324616457    0.08246203016133
S          -5.13293315571585  -10.32121530475920   -1.36024118579110
C          -6.09316202943132  -12.44357814995119    0.09654485944407
C          -6.67465207178340  -13.14114640104318    1.18433735410607
C          -6.94784372483764  -14.55025351732691    1.11637856879597
N          -7.50699227562828  -15.16755410579871    2.17507589427365
C          -7.79444635743776  -14.49593236846522    3.24223838823170
C          -7.52386950615809  -13.10723339666328    3.30831454723207
N          -6.98820844655375  -12.47556008372144    2.31530444802402
F          -7.81067942936833  -12.39969552505456    4.40080107064942
F          -8.34301326680374  -15.14604485276140    4.26323545102356
C          -6.65959436214298  -15.34901484567917   -0.01635553853923
C          -6.06643002558575  -14.65833067163324   -1.10060535500022
C          -5.79960634998432  -13.24288871693991   -1.03388874848020
N          -5.24866132241790  -12.79129983988969   -2.15932702992121
S          -5.07913840574988  -14.00453554373035   -3.19507160706759
N          -5.69376092569439  -15.16791371661645   -2.27580435910919
C          -6.95692964147011  -16.73465391257582   -0.04928729652350
C          -6.69068280799533  -17.61748511127179   -1.09835748413198
C          -7.11124074467832  -18.90118619687748   -0.82352461654029
C          -7.71146567565203  -19.01337178271722    0.44106296755846
S          -7.74351043501274  -17.52602662728662    1.29842199944565
C          -8.11630988741795  -20.34709295853134    0.63028429696333
C          -7.77148511080162  -21.10120699625355   -0.50547396835891
C          -7.09702485962086  -20.23132106750852   -1.53879081079511
C          -5.66610972819691  -20.69307632585116   -1.82740019603253
C          -7.92444665714639  -20.18016630937467   -2.82677515493506
C          -8.17396553125554  -22.41510885861203   -0.41890367236384
C          -8.83471682520237  -22.69551134577033    0.78083499402159
S          -8.90942959437674  -21.27849640546945    1.82052248368423
C          -9.36544387649719  -23.90187595664564    1.26109641313716
C          -9.64207527514486  -25.07024498571504    0.60163475541249
C          -9.75770801698886  -26.31812691537737    1.40064438765010
O          -9.83452274456114  -26.40347240573988    2.60518959007822
C          -9.70300596043299  -27.41880264870810    0.41634039638549
C          -9.65791733224412  -28.76467838897437    0.63505279397463
C          -9.57194833728069  -29.63773980003409   -0.47313964793260
C          -9.52962352261385  -29.09379551553351   -1.78939121576380
C          -9.43351677336546  -29.96915296970438   -2.88942663713162
C          -9.38556613846126  -31.32075479921962   -2.69225994545284
C          -9.43037441599946  -31.85761685679223   -1.39037172643895
C          -9.52179250838380  -31.03472882212810   -0.30283646308235
F          -9.38078127287623  -33.18689812220595   -1.22660041441721
F          -9.29415741379752  -32.15092571789588   -3.74008027109489
C          -9.58837093253158  -27.69416183665898   -1.98447722697384
C          -9.68043888087599  -26.86891350459010   -0.89657143130409
C          -9.78841742472617  -25.41345216864120   -0.79027972906560
C         -10.20452119938686  -24.58681060290344   -1.80566929360429
C         -10.56941692415004  -23.23920625638155   -1.62474780283042
N         -10.90296783934929  -22.14456607118185   -1.52826976652035
C         -10.38904177238767  -25.00922223180499   -3.13682770320024
N         -10.52463500068738  -25.28848901400991   -4.24234172276581
H          -3.48803907528401    3.68177922204438   -2.74339974860379
H          -5.78523687876096    2.69017047559621    1.53521336926737
H          -3.14182900084508    1.30413128190283   -3.13669900212771
H          -5.45011507641025    0.24323566217673    1.15289965234034
H          -3.47732511176217   -4.10197779694908   -2.91329613046806
H          -4.94985000752717   -4.52007013260613    0.71847869219487
H          -7.71247412849856   -7.06243173308473    0.86856854041490
H          -7.03414926283519   -6.00419661032088    2.11053835248826
H          -7.45771733594855   -7.67631499828217    2.50627394485698
H          -3.71296435490188   -7.74402653385186    2.30063018314435
H          -5.09271496100227   -8.08938940381838    3.34984339592942
H          -4.66865922226512   -6.41476854123495    2.96679777460493
H          -6.43095253407177  -10.38813324115509    2.04643338569572
H          -6.21064413128451  -17.28961624674614   -2.00117749858094
H          -5.08516581357957  -20.72659998792854   -0.90843060978649
H          -5.18703167652292  -20.00421061210212   -2.51813338446790
H          -5.67559581842840  -21.68534394921029   -2.27135533460726
H          -8.95293624675245  -19.90749185656186   -2.60382802656456
H          -7.92515915162826  -21.15413975549635   -3.30955888162123
H          -7.50414361622222  -19.44744425762977   -3.51064944840807
H          -7.97093532445794  -23.16819371032440   -1.15877108806191
H          -9.52095055238386  -23.95399935564900    2.33509661262182
H          -9.68641686338477  -29.15899690152154    1.63934009820281
H          -9.40222697869209  -29.57521356058782   -3.89327922743851
H          -9.55479324666862  -31.46099888801681    0.68756351382061
H          -9.54952530822669  -27.31070474694704   -2.99163143097699
