88
 SCF done       -178.989218642530          0.000652775915
N           4.42494533962617    5.07026969914097   -2.60000935002591
C           4.52648621971604    4.04046907393749   -2.10143187171618
C           4.60788589306445    2.81360380993003   -1.41339733353585
C           4.74397405807998    3.02703046411056   -0.02961717973349
N           4.90615169273476    3.30003361950735    1.07502370170372
C           4.65657520322258    1.58689379222088   -2.03276058108631
C           4.72956178720626    0.29459033019652   -1.40056220807045
C           4.39537999718141   -0.16892681558492   -0.15748826290762
C           3.68338499607993    0.43117557119002    0.91597932244794
C           3.94405018431678   -0.02321509088596    2.20617999862204
C           3.53383156742212    0.68468908990242    3.32784472238563
C           2.80802811433155    1.86454316416936    3.21802286798511
C           2.66731563513238    2.67788654227206    4.38486634251113
N           2.87722903546369    2.23711288821424    5.59258731240744
C           2.78638213938886    3.21374928352561    6.48871788079501
S           2.91889480741744    3.28162680632998    8.19671134792339
C           2.60458796513625    5.04720713922147    8.09157010592944
C           2.56968667792306    5.83842885000317    9.28063147822391
C           2.55088939321232    5.21020093167890   10.51547101116256
C           2.43005292453618    5.91897105254600   11.70353811371368
C           2.29580825251961    7.30008766442366   11.72982401273676
C           1.97493323250948    7.90815370086925   12.98046833026908
C           1.23576818372657    9.01733446856266   13.26880455633943
C           1.32045289261522    9.60673097228012   14.63104314573818
O           1.83845328755789    9.11104449319405   15.60611550707765
C           0.69335834896368   10.94088705047498   14.51998095659873
C           0.59419042356795   11.92319429677022   15.46154784195440
C          -0.02785860543395   13.14489972231166   15.11737839679949
C          -0.15677266077862   14.19032884966608   16.05188228042573
C          -0.75579426815255   15.36502558180251   15.69200139657580
F          -0.87713190160191   16.35966045221853   16.58277390894628
C          -1.24977886055409   15.54520048141655   14.38498729596654
F          -1.82982656403688   16.70868109428851   14.05864742885685
C          -1.14077195484637   14.54845708117872   13.45643965024010
C          -0.53144973823822   13.32400190738295   13.79647638449245
C          -0.42498186902561   12.28314350911457   12.84554306846167
C           0.17362428460424   11.10470781174981   13.20384439495369
C           0.38406020726132    9.86300666514622   12.46464523663391
C          -0.25023820778669    9.51210717618919   11.29813856449179
C          -0.30576607816334    8.19323033578698   10.80481908737017
N          -0.44923080192553    7.12733401268443   10.40354562356365
C          -1.01601009796307   10.40328201129044   10.52273763983868
N          -1.60750404831392   11.10551991886095    9.83275809052487
C           2.44154296897749    8.02407946005151   10.49496188924036
C           2.53004916004841    7.27433830459220    9.23134795846900
C           2.51762848113763    8.04284346624600    8.09092056422333
Si          3.09936689718307    9.71571739844152    8.64960818401265
C           2.44178596809392    9.39162315464492   10.36652165995051
N           2.43103723713824    5.48218641747450    6.87857852534113
C           2.51746088632884    4.50105654248931    5.98636180161835
S           2.34976989099448    4.43319264677901    4.28269988257406
C           2.25332777976288    2.21362034266939    1.94528057162503
C           2.68933469690708    1.45797877659833    0.76009887124590
C           1.98261067275911    1.71737757469577   -0.38487549340991
Si          1.23035270328139    3.40313782855559   -0.11712577200893
C           1.20973702711832    3.07559978237007    1.71922591285187
C           5.21909528051974   -0.68504453215727   -2.40678698013712
O           5.53165578623657   -1.83663153536247   -2.20470319661415
C           5.19325421775198    0.03071946032341   -3.69956030827908
C           5.44945341494568   -0.44655894691626   -4.95136305938641
C           5.33046345592767    0.42654936720402   -6.05703560675560
C           5.58346780196319   -0.01418500216976   -7.37006517047176
C           5.45655784774195    0.84931922890519   -8.42225375225984
F           5.69712220396713    0.42782776092741   -9.67187520910604
C           5.07174813740817    2.18728297456991   -8.20752230373194
F           4.95439365893670    3.01191610463855   -9.25752803825810
C           4.81896785564356    2.64422893652594   -6.94444664734498
C           4.94277476689448    1.77992544658176   -5.83845812799796
C           4.69143690820216    2.24725557714698   -4.52760122525625
C           4.82084958801495    1.38578581780256   -3.47132631603344
H           4.75277865279609   -1.17857336248925    0.03124795822345
H           4.58263431354649   -0.88502837265260    2.33825686144892
H           3.85538163298924    0.37186609785357    4.30892354898793
H           2.57896746420461    4.13104465833495   10.55718006312761
H           2.34023668298230    5.36934515841198   12.62906511358969
H           2.38875783981590    7.41762194510687   13.85764355258428
H           0.98498394524528   11.77161953994816   16.45620507816214
H           0.21681137024190   14.06795504622847   17.05646061874199
H          -1.52779836326152   14.70165853002899   12.46114342645347
H          -0.81480639061520   12.44589018915199   11.85349124992612
H           2.63448984391293    7.58706268620927    7.12372199809040
H           2.52874646962538   10.03615462601377   11.22641425489382
H           2.20455040022286    1.21378465720442   -1.31135978692210
H           0.78965874577443    3.68435097188799    2.50062587440395
H           5.73827453658804   -1.47610875531672   -5.09819224625260
H           5.87872206395476   -1.03579052957989   -7.55126277970134
H           4.52835538235492    3.67268596156171   -6.79722191486730
H           4.39540302862262    3.27525913980772   -4.39429170291536
