109
 SCF done       -233.447272576603          0.000556502733
C          -2.70621461225102    2.84938470363850    1.70081608600400
C          -3.77727605989329    3.65804161188769    1.44233789485197
F          -3.74831882806559    4.94833556536799    1.79869951276413
C          -4.92225987251979    3.14766033431178    0.79802419435494
F          -5.95694698858189    3.96309386055418    0.55575856758398
C          -4.98042675754242    1.83499916287712    0.42158716162507
C          -3.89293148989637    0.97645881890857    0.67373401259661
C          -2.73363612499950    1.49192066535813    1.32307164878867
C          -1.62650806239926    0.65073257792823    1.57792780612046
C          -1.67843092402681   -0.66248073738982    1.19244580939991
C          -2.84367103729131   -1.17249226116175    0.55288309061194
C          -3.92799486813630   -0.38439334693141    0.29534273099385
C          -2.65167678188423   -2.60385123338103    0.24332030551824
O          -3.44891682478084   -3.33831473491350   -0.30647235953045
C          -1.32498494578955   -2.95077731376093    0.80055743361795
C          -0.70135626618997   -1.73928878846944    1.29538708456803
C           0.60972438777026   -1.61499384649529    1.66933596218995
C           1.18789124568663   -0.41195709116931    2.12349002451283
N           1.69830025015962    0.54287721846490    2.50417614971095
C           1.55248410900168   -2.66060720290083    1.56873371112193
N           2.37115177207895   -3.45660248290604    1.45231591989013
C          -0.89278025902756   -4.22598202811224    1.03486146575331
C          -1.51321244375849   -5.41655841914902    0.55515470794857
C          -2.11727078082154   -5.60282404521695   -0.69392354466894
O          -1.81812785541997   -4.91034429680598   -1.80604391255364
C          -0.69540461376745   -4.07211760856551   -1.88486123763984
C          -3.01111845602980   -6.71309653908368   -0.92403966147078
O          -3.82985609530553   -6.78085273563602   -1.98735349980057
C          -4.21923891112995   -5.60830891708551   -2.68151640750778
C          -3.05986872622933   -7.77966185110690   -0.03622082342062
C          -2.29683710756481   -7.70207938241144    1.15388171545965
C          -1.56063797681016   -6.51494202592687    1.46343881101996
N          -0.96035209230829   -6.58597743067328    2.64480474019410
S          -1.26311044024174   -8.03402331506693    3.29023662567369
N          -2.17911102302183   -8.62409063479485    2.10497149937735
C          -3.84864740302096   -8.97246468267261   -0.30977837925782
C          -4.67429992452583   -9.54133337125497    0.67399286331186
C          -5.38473629568300  -10.77816205593151    0.44884725703245
N          -6.04530049163235  -11.35973217179185    1.46829362816728
C          -6.11450097925090  -10.74477905492479    2.61521100589625
C          -5.53839535943375   -9.43436414669862    2.78720654246260
N          -4.83579486571453   -8.88447603798526    1.83714170683856
C          -5.73274160357196   -8.72774100726255    4.00038556253435
N          -5.90090055319394   -8.18827249113499    4.99684437354261
C          -6.80744972422494  -11.36061023641581    3.68784993445030
N          -7.39159203134961  -11.81885062574597    4.56002595752377
C          -5.37107946767441  -11.41838366084182   -0.79900853593861
C          -4.57843333238942  -10.83147787651723   -1.79198172348454
C          -3.79781307254931   -9.63705082859948   -1.54023414804541
N          -3.06046203062756   -9.29896009004642   -2.60566337889626
S          -3.36368933689944  -10.32636503152443   -3.78827852931357
N          -4.41602809792269  -11.26951439946903   -3.04741432728834
C          -6.08181830007295  -12.66786092781846   -1.04931693887393
C          -7.42573999638377  -12.83270959273348   -0.73015740336552
O          -8.04710978464046  -11.72317825109792   -0.27679733217181
C          -9.17797038827483  -11.78375287160793    0.57367503810787
C          -8.08748767028140  -14.07706264859669   -0.99403099060860
O          -9.38860010811990  -14.15834265908377   -0.62473073656942
C          -9.88398593497105  -15.34073373959190   -0.00985552472024
C          -7.43267650701422  -15.14104591863045   -1.62014961393431
C          -6.05305161059839  -14.98542145611749   -1.90932273970670
C          -5.38514280119221  -13.74812976960732   -1.62734328583727
N          -4.09620311347662  -13.78770202988362   -1.95829261067207
S          -3.76913269182199  -15.22015899090125   -2.60229631618823
N          -5.24058544650366  -15.87131184030127   -2.47995200671735
C          -8.15889714900301  -16.27604770667945   -2.12289952230691
C          -7.72490466938964  -17.53571270976860   -2.36914253231136
C          -8.48558851563770  -18.39848848452062   -3.31716129698881
O          -9.60680281794653  -18.20972723536600   -3.72742317568600
C          -7.55565886723056  -19.48935934645019   -3.67304449281147
C          -7.70713096598539  -20.47597722064527   -4.60426272933395
C          -6.65894255263657  -21.40326724157633   -4.79903778257409
C          -5.46917976844907  -21.28846640536583   -4.02204624210186
C          -4.42551233324313  -22.21331673231943   -4.22792712024525
C          -4.55693307917458  -23.20507450959908   -5.15885041836789
C          -5.73418467387574  -23.31797236594737   -5.92572496373570
C          -6.76409790288809  -22.43693663446614   -5.75009221968572
F          -5.83473035557147  -24.29903241375119   -6.83253638492771
F          -3.56365207581190  -24.08235987370796   -5.35289412109844
C          -5.34404347244003  -20.26174903746078   -3.05860769114922
C          -6.37429896644004  -19.37653613228117   -2.88433073873294
C          -6.53203635516745  -18.25301838999465   -1.96898298530246
C          -5.81634725360636  -18.03983891902238   -0.82221134405802
C          -6.20675725498656  -17.08172602765795    0.13313743265615
N          -6.55164359917695  -16.33958032633219    0.93832431933166
C          -4.67774001576608  -18.78155028266312   -0.45206649373352
N          -3.73379450060401  -19.34658333221180   -0.12520780476651
H          -1.83681821351405    3.25621703062891    2.19323531813032
H          -5.86461169053083    1.45996136311652   -0.06966120279044
H          -0.76478698038809    1.06441704881949    2.07675209803859
H          -4.80013188219017   -0.79174952504730   -0.19324712406901
H          -0.11996868642033   -4.38850719804562    1.77655716019361
H          -0.93527895052704   -3.04731564948876   -1.58087111073248
H          -0.40450511562496   -4.07113892099679   -2.93622596421096
H           0.13123540585548   -4.43740730827773   -1.26860239887535
H          -4.31241129992600   -4.75547779595494   -2.00860743256428
H          -5.19082517087853   -5.84308292264140   -3.11723103297891
H          -3.51221241405875   -5.37098880370452   -3.47873004379893
H          -9.02201436840358  -12.48721104341301    1.39359136351125
H         -10.08508133139496  -12.04246611141940    0.02543474074993
H          -9.27544414446048  -10.77659545108682    0.98011236583877
H         -10.41824469096088  -15.02225926809288    0.88841095573257
H          -9.07414889634603  -16.01341885534305    0.27373758385444
H         -10.58237433767496  -15.85444815008929   -0.67232987112817
H          -9.16096048458989  -16.06348377263328   -2.48320234971633
H          -8.61301088808856  -20.54761584337724   -5.18686339154739
H          -3.51885845812338  -22.14331232455310   -3.64751520270328
H          -7.65844973547748  -22.53674661502228   -6.34501486002907
H          -4.43169614078408  -20.19107633728854   -2.48798386502600
