134
 SCF done       -272.040277228768          0.000485536264
C          -0.37699957944542    1.72276157016593    0.26633916587774
C           0.89336780169423    1.98893483651958    0.69420792646978
F           1.43679645429673    3.19417614990700    0.48143745232024
C           1.64709633301344    1.00276332821378    1.36235291318983
F           2.88969884756282    1.29206387604769    1.77032671924474
C           1.11967559800464   -0.23689383740408    1.59276934876804
C          -0.18625311309942   -0.54212599635340    1.16274342782655
C          -0.95004521596687    0.45421215282838    0.48813886673316
C          -2.26277992753715    0.17117992210017    0.04646731370778
C          -2.79539065851537   -1.07185213809987    0.26881947280443
C          -2.02227714572004   -2.06069453482232    0.93846663794090
C          -0.75439769862174   -1.81654288508977    1.38123599030924
C          -2.80398390116199   -3.30618297546760    1.03543085709787
O          -2.44646022355785   -4.33861104721226    1.56657786762990
C          -4.08478896926369   -3.03622519345444    0.35718599645494
C          -4.09385356911237   -1.64768298676771   -0.07279219533181
C          -5.12276509356022   -0.97014928381117   -0.67293439570331
C          -6.39253789983043   -1.49884716345651   -0.98833854363852
N          -7.44940836823901   -1.84469511426804   -1.27617105443957
C          -5.05634112137038    0.38721121913021   -1.05478706547414
N          -5.06842395246076    1.48482327409225   -1.38996814413055
C          -5.07609970974052   -3.94645815055608    0.11974386091996
C          -5.16557396403504   -5.31452022945980    0.45099705686496
C          -6.23954775982261   -6.08414723347233    0.04278388985733
C          -6.16183472186673   -7.43085256505522    0.42679911887868
C          -7.08301284667617   -8.47050478658024    0.15176766956105
C          -8.34497426813204   -8.23439347943098   -0.51384705074733
C          -8.98728147216904   -9.03536601508147   -1.41665822813942
C         -10.23627504116633   -8.51600887967133   -1.81620328049664
C         -10.57361282188043   -7.33241513795512   -1.22360876092911
S          -9.31541782888996   -6.83014805848602   -0.14959587643879
C         -11.80170051030400   -6.51847886616689   -1.39990678776689
Cl        -11.24190506002865   -9.32152023291926   -2.95777374038578
C          -6.71234048106463   -9.73956283790847    0.57621141903981
C          -5.52672936176736  -10.00450209159146    1.31065094088835
C          -4.64027693228512   -8.95874159781852    1.63417533156590
C          -4.96578393954535   -7.69302871294729    1.14769832662910
S          -4.00158589915654   -6.26056808377093    1.35180830760779
C          -3.46367913309309   -9.15953749686890    2.45491280126207
C          -2.24493030327254   -8.55112642157061    2.35236638262095
C          -1.35241042667972   -8.93667724389409    3.37561342304228
C          -1.86877753748206   -9.82289818409730    4.27597877523830
S          -3.49997520914076  -10.21072104988861    3.84922762013931
C          -1.22257605325660  -10.42636727081535    5.46817508567568
Cl          0.25327178214626   -8.32583606832176    3.46743032105882
C          -5.39484510018150  -11.38275002401135    1.60993509774142
C          -6.42611684913494  -12.14982971733107    1.15606099794577
S          -7.63574430305105  -11.19471432450064    0.32431383891877
C          -6.56967628505778  -13.57739791786964    1.25367048807955
C          -5.78908725419958  -14.36945949511007    2.10995743939540
N          -5.89229880514432  -15.67635684569016    2.14746676840193
C          -6.78442703609242  -16.25361943229824    1.34058853873694
N          -7.61165395621790  -15.59662827208667    0.52319444544522
C          -7.50304242518937  -14.29040823459952    0.48602702330697
C          -6.85433914732601  -17.69001065032580    1.35193513763331
C          -7.63392670770184  -18.48377268827252    0.56257309346457
C          -7.44444202880796  -19.86374893151709    0.80393892623273
C          -8.10645264281397  -20.95006904458188    0.19311181067679
C          -9.03290856048770  -20.79020810932137   -0.90737403164301
C         -10.15619812867828  -21.52256054371937   -1.17216842157881
C         -10.76886012679911  -21.16057260185338   -2.39028942257093
C         -10.12555988644805  -20.16972122198250   -3.07442910356058
S          -8.73222832091383  -19.65008458927780   -2.19092814355001
C         -10.48728913624560  -19.54944402252043   -4.37342795016986
Cl        -12.20370704738805  -21.92425454646066   -2.95668082465703
C          -7.78287002191046  -22.21342196560834    0.67166526161139
C          -6.82393729304246  -22.44762885161993    1.69070101418046
C          -6.15859660220739  -21.36130957368165    2.29762431960502
C          -6.48908323181148  -20.09074299672977    1.82935934038611
S          -5.84274916871408  -18.59138800843027    2.43849805998618
C          -5.19460107877156  -21.53398951874931    3.36262565211208
C          -4.04773427366113  -20.82383952226130    3.58137407509547
C          -3.37576127021445  -21.21883816769837    4.75713315675003
C          -3.99661519571059  -22.21254816630306    5.45843591079151
S          -5.44436271982802  -22.69269676188670    4.64284914507460
C          -3.57647979252749  -22.86106053727072    6.72551644591454
Cl         -1.89817818654898  -20.49288268347602    5.25749786585819
C          -6.62417454504200  -23.82872624343547    1.91167085277774
C          -7.36880211398071  -24.63863245699109    1.09570714396188
S          -8.42521188752988  -23.70498453391644    0.05162283173408
C          -7.39165212204612  -26.05877511849181    1.12137884401250
C          -7.84289233954716  -26.90907690453882    0.16411389400109
C          -8.23435883375891  -28.30102472452544    0.52384668401548
O          -7.95415568223086  -28.89589448150648    1.53728403043979
C          -9.08905586417806  -28.75572406907253   -0.59342701627499
C          -9.81698900770144  -29.90543637221128   -0.70326964560036
C         -10.59726546674809  -30.11650397762537   -1.86226256426414
C         -10.61122839675108  -29.12638889280565   -2.88782847072374
C         -11.39897758343715  -29.34101145603927   -4.03674026407546
C         -12.13534446952361  -30.48516032407250   -4.16334528413594
C         -12.11953925599058  -31.46427047880768   -3.14953915212582
C         -11.36699161535245  -31.28525244049222   -2.02290761485181
F         -12.85242251297575  -32.57586203229162   -3.29995787751241
F         -12.88250561908696  -30.68785472072053   -5.25638304728644
C          -9.84011455333262  -27.94964451677357   -2.75145270122106
C          -9.08626266751651  -27.77054964612190   -1.62291452461517
C          -8.18043022861253  -26.69658855457219   -1.22973893308248
C          -7.55380041057115  -25.82917411915290   -2.08305860849998
C          -6.45725898152246  -25.02809232835324   -1.69639743925216
N          -5.52268366611550  -24.41758789068279   -1.42991775504836
C          -7.86675998699647  -25.71542079856978   -3.45249646569986
N          -8.10190635541298  -25.57776445787760   -4.56725579293800
H          -0.94011243053332    2.48913335520049   -0.24304828966990
H           1.70919506953813   -0.98112215382887    2.10492569136167
H          -2.81125003549395    0.94724648452418   -0.46190710538402
H          -0.19277806948157   -2.58680828179005    1.88755856074556
H          -5.94095871804816   -3.59561653745077   -0.43043200419380
H          -7.04248216905162   -5.66953556569369   -0.53928254878838
H          -8.57693020558025   -9.94155648857859   -1.82127190819029
H         -12.39956263198073   -6.92750491319655   -2.21052725077655
H         -11.54708251386497   -5.48480647251888   -1.62889695620835
H         -12.39847923907626   -6.52188995690363   -0.48754636692911
H          -1.96799256653236   -7.87469068235803    1.56593646038633
H          -0.19412295089533  -10.08153089523050    5.53917253643642
H          -1.22889285748429  -11.51374166916313    5.40098561202039
H          -1.75373188317452  -10.14417836235910    6.37699223800271
H          -4.54157528595944  -11.79495099576666    2.11452081248367
H          -5.06961928559415  -13.93193947811998    2.78921430492016
H          -8.17704802831644  -13.77337502732196   -0.18667517628917
H          -8.32035578609445  -18.06961463057758   -0.15115672153055
H         -10.56563612906440  -22.26496683648763   -0.51262722202383
H         -11.27602268454512  -20.12724458167610   -4.84889142099859
H          -9.62278988647336  -19.51235403268426   -5.03418343718980
H         -10.84139243433017  -18.52881481679578   -4.22550809801234
H          -3.66789352839485  -20.07204271067321    2.91569753286546
H          -2.70638313908140  -22.34821702295191    7.12752461142587
H          -3.32046325357507  -23.90684332110861    6.55530769179908
H          -4.38084440621733  -22.82867965965606    7.45900450330394
H          -5.91342263264617  -24.22711456458160    2.61186860587876
H          -7.08772751947221  -26.51830197192211    2.05669021848942
H          -9.79964122697266  -30.64394870566565    0.08372774299223
H         -11.41973365823195  -28.60300075655589   -4.82332744515525
H         -11.36608107936160  -32.04398520538375   -1.25606103961594
H          -9.87224118293147  -27.21086651422871   -3.53657637513834
