141
 SCF done       -298.169304614093          0.000876701753
C         -13.80932893859896    0.35154473447688   -2.07876830375210
C         -14.84412022276479    0.36896021708755   -2.97115852642500
F         -15.52909464657138    1.49977913869924   -3.18625429968047
C         -15.20453766835942   -0.79772428439433   -3.67522176096378
F         -16.22351068477222   -0.75111407777808   -4.54412854657561
C         -14.52486063945669   -1.96644843074883   -3.47630072858921
C         -13.45463013643020   -2.01665692425830   -2.56209868324170
C         -13.08799104439098   -0.83780528025772   -1.85032377704960
C         -12.01663634809699   -0.86341340180761   -0.92847769399289
C         -11.33329173512699   -2.03354593900088   -0.72143329056256
C         -11.71209761977644   -3.20431664952050   -1.43070211583382
C         -12.73838936945672   -3.21113962022122   -2.33077356616450
C         -10.84962373646721   -4.33130934815888   -1.02776881107463
O         -10.91883438069477   -5.45498360630558   -1.48083269255721
C          -9.93766238945231   -3.79154761150133    0.00925765501111
C         -10.20511484428106   -2.36520575340833    0.14462113056007
C          -9.51818048633831   -1.45610457342736    0.90605848503080
C          -8.38346569099840   -1.70720438262700    1.70811384282186
N          -7.45405992303206   -1.79587824443930    2.37736122478286
C          -9.84412496950030   -0.08413348620403    0.97877720882849
N         -10.05303231544699    1.03916307830480    1.09056127752687
C          -9.03068412052751   -4.45814770852748    0.78815896687454
C          -8.63130227215454   -5.81138122719907    0.82174574430824
C          -8.97317597350198   -6.89948297890720    0.05254267444338
C          -8.32857093853598   -8.08945835587376    0.42885758066063
C          -8.50570516220256   -9.37832325738758   -0.13194532094616
C          -9.34407568469701   -9.61442712580111   -1.28580677462087
C         -10.13572692018167  -10.70230777613962   -1.53698833541627
C         -10.77721485271966  -10.63015773276916   -2.78890224993523
C         -10.47742643895809   -9.50985676570722   -3.51327554401642
S          -9.38599088617229   -8.50649358309202   -2.63075465028456
C         -10.95789931967976   -9.12713653830345   -4.86454306314598
Cl        -11.84607833933884  -11.85468048973021   -3.35198094277688
C          -7.81372555430722  -10.41779437746316    0.47542997676713
C          -6.94119510968216  -10.22727646016622    1.57899009973308
C          -6.77422989698401   -8.94499153568151    2.15332409779466
C          -7.46672997098909   -7.90421969812536    1.54665146955115
S          -7.46309279756790   -6.24841577182053    2.06776610167143
C          -5.94019752720394   -8.75698176215394    3.31925652343302
C          -5.80789438943072   -9.58803291584656    4.39749860277240
C          -4.89519798615827   -9.09692802963208    5.35310795989537
C          -4.32226117127642   -7.90086174919402    5.02595741579390
S          -4.92569423901791   -7.35119742878054    3.50060094705185
C          -3.32861953168127   -7.10545095961530    5.78893420531412
Cl         -4.54143043517308   -9.95300112968170    6.80531552146019
C          -6.28620358196040  -11.42088722218827    1.93453100009902
C          -6.65764587075034  -12.50568270053178    1.17568011605756
S          -7.82898744378887  -12.08487741549479   -0.04492775652727
C          -6.20464798591403  -13.84765549936984    1.34106108183363
C          -6.68421007584841  -14.89118411573530    0.52062613315501
C          -6.29908158074873  -16.26556141480576    0.68443999536214
N          -6.83169385011650  -17.19036305805096   -0.14457923241760
C          -7.66399650727160  -16.82784830873074   -1.06390604359274
C          -8.04052844857116  -15.46948642213605   -1.22919842350077
N          -7.55585938770682  -14.55735303203092   -0.45294018046966
F          -8.89334303447529  -15.09810921420663   -2.17673003446371
F          -8.15636824029555  -17.77820640970764   -1.85449860905410
C          -5.38703009992437  -16.66068709043014    1.68967135737936
C          -4.88658850805349  -15.61413890615847    2.49374553708316
C          -5.28374884119851  -14.23540212073020    2.33831671583201
N          -4.68132795351545  -13.45213492737676    3.23710786395349
S          -3.72429912487463  -14.34281050507006    4.16594850356641
N          -4.01484326566711  -15.76673339429006    3.49152644547832
C          -4.99191045298468  -18.00994873100949    1.93833383892605
C          -5.41946967878376  -19.14962544915965    1.30227027902414
C          -4.87539605713577  -20.33532273390383    1.82849178744374
C          -5.11527285880283  -21.65863776114554    1.38891419858678
C          -6.12699933280915  -21.94144714922080    0.39749040031600
C          -7.34609307286983  -21.33720530996872    0.25263882976915
C          -8.09791958036761  -21.87181171035838   -0.81295447963904
C          -7.47359415920118  -22.87849749074117   -1.49422362610213
S          -5.92033565459527  -23.19232139570152   -0.79921798646011
C          -7.97220318235768  -23.66132776461923   -2.65175467250581
Cl         -9.66546659699257  -21.28969452905987   -1.21408056260637
C          -4.35981449042706  -22.64955875963662    1.99994910990529
C          -3.43507562187814  -22.39849703838195    3.04782919225390
C          -3.22183727208392  -21.07793075013560    3.50623044461943
C          -3.96087734799200  -20.07829426583298    2.88179143464071
S          -3.85887336474311  -18.37055073104662    3.22172613640988
C          -2.27246754333733  -20.75363446820563    4.54856344754833
C          -2.37995898204052  -19.78450384239678    5.50632435714461
C          -1.23084036681557  -19.68768085320923    6.31839147035641
C          -0.23136668166090  -20.55929860190383    5.99326982875454
S          -0.71893925316768  -21.54035298320575    4.65471077806067
C           1.10414269472297  -20.72166479867359    6.61998796297278
Cl         -1.11182184012209  -18.55304823407071    7.60691079248547
C          -2.87683732319358  -23.59473888518587    3.54518258035160
C          -3.35210479786763  -24.72854961271003    2.93752734186693
S          -4.47854010650564  -24.34754639239237    1.64932931802277
C          -2.94831979388386  -26.06009990101401    3.22096569253052
C          -3.59045500738197  -27.21566689829914    2.90988053594568
C          -2.83450335594696  -28.49751735799246    2.84346309532743
O          -1.73727062309998  -28.71917129487213    3.29781820461763
C          -3.69140744995484  -29.40277450686179    2.04827876120424
C          -3.41411885885432  -30.65527152248182    1.58129451976788
C          -4.38583870253171  -31.33200881366560    0.81019107691262
C          -5.63089823548675  -30.69443335342726    0.53564145384353
C          -6.59401532490167  -31.37514553758829   -0.23609285332291
C          -6.33449736427163  -32.62957240767662   -0.71183963468217
C          -5.10261316816935  -33.25865799290450   -0.44098185349164
C          -4.14820881329789  -32.62495585116602    0.30425447748028
F          -4.87420794570996  -34.48770560333707   -0.92304047172094
F          -7.25175027628839  -33.27524919703335   -1.44379135101899
C          -5.89310301125282  -29.39944867784562    1.03746635168013
C          -4.93848906538083  -28.76525010020673    1.78617783907916
C          -4.94362625683827  -27.46979805052908    2.45702818158555
C          -6.05910444809181  -26.76798610909739    2.82761995459975
C          -6.02524411090365  -25.70081817020143    3.75147165768136
N          -6.04053806380317  -24.87689122864704    4.55025271015343
C          -7.36293734775929  -27.08868990834705    2.40039531426945
N          -8.43762363351553  -27.29651425045589    2.05459277388200
H         -13.54624747921040    1.25386874500854   -1.54921169664179
H         -14.81294328400623   -2.85117749014210   -4.02215567177408
H         -11.76897190076639    0.04627393527059   -0.40674871852264
H         -12.99996604599603   -4.11733867885017   -2.85568688158210
H          -8.52100428387528   -3.85978559251689    1.53426511995309
H          -9.68734705230306   -6.82687019854194   -0.74558194904465
H         -10.29219235409056  -11.50888873279535   -0.84583560483882
H         -10.24594374574132   -9.44322775033080   -5.62834784384755
H         -11.07471250317060   -8.04816351293065   -4.93506731639674
H         -11.91151705058869   -9.60987420792457   -5.06671522403603
H          -6.37005001824080  -10.49254413755535    4.53520049744778
H          -3.08854773811557   -7.61212982298436    6.72033885039544
H          -3.72390178090175   -6.11571770807689    6.01465372685307
H          -2.41464721123374   -6.97552143793697    5.21030286477742
H          -5.54060251763564  -11.49880517429638    2.70227238287482
H          -6.08221677526967  -19.11538700831280    0.46090368854390
H          -7.72173740330103  -20.57358364708353    0.90740532049801
H          -8.82930074662053  -23.15798606993928   -3.09237789399475
H          -8.28026221019247  -24.65794380911879   -2.33368819218399
H          -7.19403150687440  -23.77350416406872   -3.40425118851192
H          -3.25537285742290  -19.18231585523311    5.65956267415245
H           1.16298980565548  -20.11311389825288    7.51888371642745
H           1.89107527488266  -20.40972620317745    5.93304258374690
H           1.28222419139514  -21.76356951203563    6.88150076172632
H          -2.18422941618420  -23.63846236388049    4.36530985353207
H          -1.96583062049236  -26.17096419715591    3.66903428424078
H          -2.46599931706262  -31.12421895270425    1.79619976861594
H          -7.54319866460617  -30.90902793539316   -0.44962917648273
H          -3.21079460949013  -33.12044787717111    0.50282377304682
H          -6.83894528834275  -28.93390820627294    0.81005534839582
