136
 SCF done       -279.944044501788          0.000974311663
C          -3.53080717075391    2.07625360168090   -0.23112098224804
C          -2.30498242137666    2.58062387851673    0.10125319274272
F          -1.99130249244903    3.84551657951460   -0.20680688613274
C          -1.35677962063765    1.77986298330118    0.76962454539156
F          -0.16289137603241    2.30067712439055    1.08199446109665
C          -1.64812236912208    0.48528331746289    1.09690977837787
C          -2.90269443429507   -0.06354520878281    0.76767585084830
C          -3.86216804631702    0.74478270921190    0.09153707302446
C          -5.12701841343618    0.21549232793535   -0.25205636274309
C          -5.42341232708927   -1.08358648669550    0.06829965615195
C          -4.45773095869110   -1.88276912533226    0.74110460081899
C          -3.22960105533223   -1.39940946851611    1.08946807903381
C          -5.00799683230920   -3.23366371092534    0.95467253735647
O          -4.45763351217872   -4.15198364343231    1.52833308232169
C          -6.34443793219150   -3.23058253784333    0.33194867132130
C          -6.61857918711146   -1.89126141186621   -0.16189717602371
C          -7.78267382532855   -1.43389233914427   -0.72149418778858
C          -8.95788841134925   -2.18895721649539   -0.92223875815390
N          -9.95416483360003   -2.72682085708277   -1.11657415465883
C          -7.97557927556063   -0.10949976846691   -1.17005168971304
N          -8.19776254541613    0.94858871934105   -1.55513717867577
C          -7.16395863216385   -4.31388867957974    0.18298099388462
C          -6.99419468209310   -5.65676277160131    0.58088706726183
C          -7.93018958745344   -6.62432891020192    0.26172048423287
C          -7.59668491625750   -7.91337899930951    0.70240149337740
C          -8.29582017518828   -9.12221210509792    0.46427036066604
C          -9.60528144301854   -9.11480696698325   -0.14743103573776
C         -10.62492320273965   -8.23207389945472    0.07996819587300
C         -11.77811410654654   -8.52341510524656   -0.67793075522446
C         -11.65724184258818   -9.61474195486472   -1.49056864084131
S         -10.08573553541690  -10.31707248266408   -1.31433821603168
C         -12.65521363859904  -10.19061462228073   -2.42563552660933
Cl        -13.21151475089263   -7.57514063840565   -0.57263961457580
C          -7.65068339995934  -10.28602735855068    0.85694762492614
C          -6.40692708780543  -10.30094982693566    1.54265233194025
C          -5.74229768697517   -9.09322425443517    1.83224028117198
C          -6.35134558701815   -7.92123331335319    1.38384842839105
S          -5.65258452266384   -6.33008862459661    1.48150307590267
C          -4.47622339124817   -9.03277726858634    2.53360875878571
C          -4.07432305798109   -8.08701194180380    3.43442621482954
C          -2.75698241400418   -8.29448176442518    3.89453320062947
C          -2.13096168920614   -9.37804870010777    3.34981201387281
S          -3.19382090476102  -10.17850386487035    2.24485224589108
C          -0.75905768735720   -9.88624877153624    3.59995372581096
Cl         -2.01479599949670   -7.25618676474222    5.04842584559488
C          -6.00555684919581  -11.62069806794138    1.86851705593393
C          -6.86389875590980  -12.58364195398705    1.42887843165819
S          -8.25587376646252  -11.89799559701694    0.61425172797881
C          -6.73033585471301  -14.02083995660784    1.50343428693906
C          -7.45650281093324  -14.83946847298767    0.63454412328110
C          -7.29541233084144  -16.20545724905435    0.64361081963190
F          -8.02258441628561  -16.92663872717446   -0.22932031766464
C          -6.42421554218800  -16.85826769351947    1.52356947521938
C          -5.72210945508656  -16.04417837730475    2.41612021012830
C          -5.87185871240019  -14.67541221694733    2.39651927528512
F          -5.15574325850790  -13.96444942400661    3.28816681602969
C          -6.23451168845934  -18.29333279330244    1.51314712637572
C          -5.81686192584697  -19.07969711175676    2.54691716354356
C          -5.70324600493896  -20.45009786797155    2.20878572248397
C          -5.34604712851100  -21.52639981886626    3.04608903898492
C          -5.04533742919484  -21.34376685687620    4.45261840875946
C          -5.69765898353238  -20.58103491471115    5.37831800289093
C          -5.09721646325584  -20.64689414863641    6.65432330119256
C          -3.99002034246137  -21.44364665495604    6.71812402828217
S          -3.67137140247158  -22.14444453300701    5.17102968985216
C          -3.11289347353293  -21.72289316625175    7.88289114332720
Cl         -5.71771732249818  -19.79491335167962    8.01642947288543
C          -5.26813271075938  -22.77328207754864    2.44253043196272
C          -5.50878692229838  -23.00244179307898    1.06348419447301
C          -5.90124194678200  -21.93125460254182    0.23294319351722
C          -5.99151512870387  -20.68039838844722    0.84040583041553
S          -6.48914983214437  -19.21443069882360    0.05121421935860
C          -6.21031899854327  -22.10258218017833   -1.16986614416714
C          -5.94596012662334  -21.24281386388356   -2.19921630108947
C          -6.43295518117160  -21.70691972507786   -3.43896823411024
C          -7.08349307671829  -22.90614302339690   -3.37873001698271
S          -7.08742812730248  -23.49379642358769   -1.75218229202121
C          -7.71544854591182  -23.67885839601625   -4.47673616419490
Cl         -6.21943579683384  -20.82006959880450   -4.89815609988471
C          -5.27816805169578  -24.35110953602235    0.71366773347897
C          -4.89380515341741  -25.14310305343096    1.76536085238577
S          -4.87186407926891  -24.24688210506551    3.27155507802892
C          -4.61678789672826  -26.53361735633375    1.70028267612789
C          -4.00754209513213  -27.32101773152572    2.62445792884905
C          -4.22879497253990  -28.79369951978206    2.60385273821840
O          -4.65709516322415  -29.45314616802502    1.68664368441739
C          -3.88029041550106  -29.24821717599041    3.96702846539223
C          -4.02369237117515  -30.48854206624383    4.51875772043245
C          -3.64993475519636  -30.68847886281339    5.86663693087101
C          -3.13629107803629  -29.59341964634527    6.62112826146992
C          -2.77501568394685  -29.79964880292423    7.96782813322009
C          -2.91280066643483  -31.03425532602079    8.53712666745067
C          -3.41739900525102  -32.11704508420458    7.78912014589497
C          -3.77859166460850  -31.94907276006804    6.48183648088186
F          -3.54148120059127  -33.31642527772194    8.37327537504086
F          -2.56834129005228  -31.22756762229015    9.81705150364529
C          -2.98778393750935  -28.32258171604751    6.02034198497801
C          -3.35007353529366  -28.15435247281667    4.71091320286894
C          -3.26412412125222  -26.99710267131960    3.82672027161906
C          -2.42074993617873  -25.93046883864785    3.98611299525875
C          -2.10932623547141  -25.04197820465718    2.93290490307255
N          -1.77896415262070  -24.35712698892490    2.07349370482252
C          -1.72968188302494  -25.64740521556606    5.17988535075743
N          -1.18048144254605  -25.35291307322407    6.14413403852954
H          -4.24505324994501    2.70275534642647   -0.74225387095854
H          -0.91171133497932   -0.11467423217181    1.60823604359397
H          -5.82772234056383    0.85336988158376   -0.76555273494220
H          -2.51718754553943   -2.02948835027150    1.59989305561414
H          -8.09541473718384   -4.15206888046936   -0.34650740935458
H          -8.80896567204965   -6.39853596606950   -0.31517675341538
H         -10.58013698230844   -7.43182705244913    0.79521253617089
H         -13.61858936675360   -9.71011239381557   -2.27433875984667
H         -12.75931990345802  -11.26209164618196   -2.26334985626971
H         -12.34589262775823  -10.03637102051095   -3.45952786955026
H          -4.69616766869704   -7.28724894802360    3.79023690301853
H          -0.27877810302408   -9.27975447974514    4.36367428056290
H          -0.16172388471939   -9.84596475509923    2.68928887390187
H          -0.78948352754510  -10.92231511703111    3.93514769929179
H          -5.09843712694067  -11.84119849941986    2.39692601143124
H          -8.14330116271360  -14.40092090698194   -0.07262888795423
H          -5.03008137906672  -16.47797387088689    3.11953013428561
H          -5.60328503224827  -18.70153211737209    3.52898328135624
H          -6.59819857732294  -20.02949973638223    5.17992964233614
H          -2.38763445514961  -20.91887717094639    8.01537772491182
H          -2.56912158271586  -22.65246983097922    7.73410775052135
H          -3.70899106230924  -21.79140625537948    8.79118026129212
H          -5.38963182280006  -20.32999903334984   -2.09786391172258
H          -7.64631293676150  -23.11750333259272   -5.40500954168915
H          -8.76418666509213  -23.87370623250985   -4.25585803235187
H          -7.21681817312337  -24.63914245756452   -4.60697567338192
H          -5.34372655588552  -24.72993473921900   -0.28966737814493
H          -5.01938878099851  -27.05111901854366    0.83510868913016
H          -4.41780523104879  -31.30674511111952    3.93544661139257
H          -2.38380877216771  -28.98267773803856    8.55373707642376
H          -4.16361883576144  -32.78757319272966    5.92293359768759
H          -2.60053082447390  -27.50768601671307    6.61137335325070
