133
 SCF done       -269.435513615220          0.000946831880
C          -5.67742374179960    2.24653458960618   -5.74971420910017
C          -5.73100066674083    2.27451744626724   -7.11498100135892
F          -5.64802399701255    3.44077214232274   -7.76845793152611
C          -5.87356427167736    1.08168804452443   -7.85204967888541
F          -5.92277155194994    1.13947403952221   -9.18981083891866
C          -5.96003372026156   -0.12336888240206   -7.21316841342137
C          -5.90611157531827   -0.18533703854022   -5.80717915152826
C          -5.76414661998581    1.02022411722712   -5.06036779665184
C          -5.71229562123585    0.98335441996495   -3.64811668801115
C          -5.79808390011498   -0.22259647852237   -3.00354912078277
C          -5.92859680880063   -1.42102646475159   -3.75741037582556
C          -5.98491284949615   -1.41756903235609   -5.12138704229974
C          -5.98341162780161   -2.57943654722019   -2.84476896875548
O          -6.08221644028253   -3.74068968555318   -3.18100797478181
C          -5.81851044566499   -2.01930041148592   -1.48116279110025
C          -5.78314238357535   -0.57067985625933   -1.58692959988787
C          -5.82178357705553    0.32210127079683   -0.54865015800424
C          -5.80755029863743    1.72297933323622   -0.71549557564768
N          -5.78996131056615    2.86830486725632   -0.78934992417067
C          -5.92593866924686   -0.02175874895082    0.81649774579398
N          -6.03943369977515   -0.22087074066543    1.94158423214379
C          -5.52788411125381   -2.71593297085197   -0.34107426169645
C          -5.60624404922224   -4.10874805239005   -0.11769619201238
C          -6.33995101297452   -5.07787838484338   -0.75631085015313
C          -6.14825403410710   -6.37234549981895   -0.23796693035985
C          -6.70334305961569   -7.58125410506337   -0.71945658364424
C          -7.53159626850049   -7.59726748688662   -1.90508127455246
C          -7.38897424097762   -6.86367090632241   -3.05036429685659
C          -8.40416470199776   -7.13002495363937   -3.99304684632055
C          -9.32750027483448   -8.05193810452481   -3.58963863836331
S          -8.93507278193406   -8.62999388462350   -2.00700609272906
C         -10.51733410079339   -8.55829756923008   -4.31833045675476
Cl         -8.46454044169646   -6.34113451458161   -5.52037563111642
C          -6.38859669693463   -8.72798773243238   -0.00299406192749
C          -5.53448175703865   -8.73251068826817    1.13112971555357
C          -4.94479512352822   -7.53390180567672    1.58476925818626
C          -5.28194587945304   -6.37756520713831    0.88762686371069
S          -4.69425591363452   -4.77881511829983    1.23042283165884
C          -4.01911360944467   -7.49082072896080    2.69807538864633
C          -3.89619568531132   -6.51650914683194    3.64891973529807
C          -2.84568100868925   -6.76809578526935    4.55574942213720
C          -2.14625409684836   -7.91432853338896    4.30783746520759
S          -2.80345441763949   -8.72050849868923    2.92824748172888
C          -1.00165873251792   -8.47804069279833    5.06740745456620
Cl         -2.47358140844301   -5.71318649556793    5.86324452693755
C          -5.39690865970415  -10.02910906918074    1.67645586942536
C          -6.06868569462761  -10.99391621092657    0.98060310424707
S          -6.93453453307153  -10.33754928825342   -0.39030673039649
C          -6.11297600081942  -12.38793647002798    1.25800791926215
C          -6.71086642522794  -13.38298992607947    0.51537661934261
C          -6.54550634640519  -14.65534284172903    1.06091298728550
C          -5.82414497232115  -14.65403454220926    2.23673239883253
S          -5.33808947151814  -13.04287966139633    2.66839276208220
C          -5.47497504390882  -15.76956036652611    3.05112576969048
C          -5.65023611833277  -17.09591059371860    2.76888066371380
C          -5.18608736912793  -17.95971557737338    3.78707230330148
C          -5.24621352706007  -19.36755931256232    3.82299039936273
C          -5.76331434030558  -20.16734099144730    2.73108553983009
C          -6.52509272109418  -21.29724455468025    2.81831891102185
C          -6.79532402835004  -21.87545848238757    1.55902202748000
C          -6.24464386128933  -21.20980766292562    0.50268469992052
S          -5.37532039120505  -19.82236543215651    1.06668762485125
C          -6.31775998523234  -21.53410686047115   -0.94383538030581
Cl         -7.73629381632630  -23.30766003584991    1.39588997397832
C          -4.77434550276767  -19.97512495475360    4.98002081064525
C          -4.26758185035159  -19.26091907397722    6.09575288239053
C          -4.21215368482458  -17.84982519726771    6.06189025535552
C          -4.65812865803949  -17.24347497641343    4.89190390294085
S          -4.72255093409767  -15.52616482059944    4.61041606894141
C          -3.74434995865485  -17.05785349228558    7.17890661139436
C          -3.02613049953909  -15.89523619071850    7.14045394722441
C          -2.80245692797855  -15.34942057322217    8.42160586736438
C          -3.35027732663580  -16.06695622207101    9.44623656539244
S          -4.15513889390879  -17.46581280265917    8.82397634668692
C          -3.31780301366848  -15.78490031392886   10.90294151952098
Cl         -1.91366116433248  -13.89411817014952    8.65499650274245
C          -3.81111014394645  -20.13125842078730    7.10816762577501
C          -3.99148095156753  -21.46117134088354    6.82595433487837
S          -4.68197868838017  -21.69210575001882    5.23030860066806
C          -3.59596551234367  -22.54425871188045    7.65242530720011
C          -3.97365084118418  -23.84743068426141    7.58581754565779
C          -3.11811101759923  -24.89951611430262    8.20207167824695
O          -2.23507105387674  -24.73669530909099    9.01067669613797
C          -3.54058837977682  -26.16021119242765    7.55593242309578
C          -2.99020970377386  -27.40488075687779    7.66257933533538
C          -3.54711058286348  -28.46850457897446    6.91741894139899
C          -4.66565808241868  -28.21980063565864    6.06943600113926
C          -5.20939623309288  -29.28438953102911    5.32278995295421
C          -4.67089016500787  -30.53688633019318    5.41582056860606
C          -3.56629540913077  -30.78218575625764    6.25617035294388
C          -3.01540899757590  -29.77076744315764    6.99186967386806
F          -3.05807159700616  -32.02002468525146    6.32677563975109
F          -5.18946855031989  -31.54742335142562    4.70577784176133
C          -5.22109623439340  -26.92259337266371    5.98620944223533
C          -4.66952204846549  -25.90970736912170    6.72350149362759
C          -5.04669993428252  -24.50767501321558    6.87017998695691
C          -6.29104699634182  -23.98994169822740    6.63060279540974
C          -6.70016898850596  -22.71984775797664    7.09194121095995
N          -7.08767279337866  -21.72301283903079    7.50844289408166
C          -7.32513881973753  -24.70162248569990    5.98963091204890
N          -8.18572255327720  -25.23342549470164    5.44739886053929
H          -5.56995562329175    3.16901043657527   -5.20078613843131
H          -6.06867948322881   -1.02752395679300   -7.79144288574994
H          -5.59920895897824    1.91179822569162   -3.11230468045759
H          -6.08857411597234   -2.34228364543206   -5.66856151581601
H          -5.13975166275895   -2.15315859330399    0.49999906200804
H          -7.03062840415346   -4.85562022551026   -1.54486132343386
H          -6.58201663205038   -6.18099957523522   -3.24289366159074
H         -10.65640668630696   -7.98897594037651   -5.23378731048835
H         -11.41086942651704   -8.46904725978018   -3.70247047849851
H         -10.39095250417183   -9.61013375570445   -4.57408299808512
H          -4.54805742104886   -5.66721086676291    3.73361601139697
H          -0.33769626140309   -7.67724835736988    5.38699527987500
H          -0.44695652121418   -9.18479572340977    4.45601834827643
H          -1.35547650913264   -8.99696686236215    5.95915727857360
H          -4.82705803331254  -10.25620117819593    2.55853397802382
H          -7.24547354907902  -13.17969156644800   -0.39551533159219
H          -6.94436627303713  -15.55005510908968    0.61973317716912
H          -6.10063986814651  -17.44274299565252    1.85865704372720
H          -6.92236773849636  -21.68845732004342    3.73667333737769
H          -6.90517285034561  -22.43773889272437   -1.08395012643926
H          -5.32057386294927  -21.69184622559805   -1.35345317249841
H          -6.78228051697888  -20.71941927567042   -1.49839898703467
H          -2.63239702687116  -15.45560781906916    6.24320794218827
H          -2.77875454171444  -14.85867730392418   11.08519099706629
H          -2.82364000880174  -16.59382923192048   11.44022730139563
H          -4.32880173447426  -15.69064701736782   11.29787385652427
H          -3.37590596138665  -19.80076265099569    8.03320541489396
H          -2.82626830090381  -22.31709609668241    8.38369375595207
H          -2.14054410672167  -27.57654307652091    8.30573681303532
H          -6.05703983125182  -29.11446911254250    4.67746639899168
H          -2.16994444040817  -29.97484278501927    7.63003936254154
H          -6.06289796255327  -26.75702446771446    5.33260162541858
