135
 SCF done       -278.469984175975          0.000823070594
C          -8.18833747377268    3.12908321557855    0.43469446261904
C          -8.23910034659561    3.70277530038151   -0.80456849913394
F          -8.32421516635743    5.03368924412054   -0.92778427846240
C          -8.20258600553494    2.90583636883980   -1.96677136290998
F          -8.25325974048086    3.49582678273135   -3.16864919027453
C          -8.11620018492110    1.54529781825236   -1.87305410235496
C          -8.06243439215963    0.92439531259580   -0.60996549665311
C          -8.09917695179873    1.72832835082330    0.56619063478420
C          -8.04784868654457    1.12768003570284    1.84478868944232
C          -7.96217091007934   -0.23686392188322    1.94580279425770
C          -7.92095674324624   -1.02765613216971    0.76688889358132
C          -7.97072012669153   -0.47840969481595   -0.48193176880768
C          -7.81662098327677   -2.45402368016002    1.12678658504366
O          -7.78949551398675   -3.36945265011448    0.33066502728700
C          -7.75023258650991   -2.49390510855389    2.60815045277741
C          -7.90140902966596   -1.12916142945387    3.10034353177934
C          -8.01728174309372   -0.72069088174010    4.40273938814766
C          -8.03674563722874   -1.54398624990881    5.55009210900436
N          -8.07608507373069   -2.12039282154092    6.54282431377335
C          -8.16739302752397    0.62795331406584    4.79406609791516
N          -8.29097122669890    1.70026191669132    5.18438159626790
C          -7.52133114336052   -3.56365509497205    3.42957745714725
C          -7.35728115704581   -4.94060527776618    3.15835490756704
C          -7.43948204547497   -5.66959661805669    1.99688163818365
C          -7.21606329967137   -7.04760746056788    2.17042166379454
C          -7.18676493950364   -8.04361700601362    1.16742280247440
C          -7.50799565409110   -7.77363040785172   -0.21561642600160
C          -6.94978801327752   -8.33447980201926   -1.33285442335942
C          -7.54953852980062   -7.88272523590097   -2.52482624284585
C          -8.57204269948326   -6.99393723775249   -2.34191284869217
S          -8.80102470063960   -6.69081830321439   -0.65820181139207
C          -9.42164440699433   -6.33560217008843   -3.36523600317364
Cl         -7.03015030790939   -8.41557153211669   -4.07473934511900
C          -6.84390342825846   -9.32344633454922    1.58997920309174
C          -6.56220365865138   -9.65834720143803    2.93787817203949
C          -6.60552224037892   -8.66839577884335    3.94290602027914
C          -6.93577417433876   -7.38236725775845    3.52439060973328
S          -6.99861366371568   -5.97646278939979    4.54028069731679
C          -6.32004786632462   -8.95580189368227    5.33275623547338
C          -6.93353168206067   -8.43519845159391    6.43768129376304
C          -6.38277687048269   -8.91577539355984    7.64431687341294
C          -5.34334368546472   -9.78682317790090    7.48459152061264
S          -5.03091789156174  -10.03265700556114    5.80272145953486
C          -4.54355109483513  -10.48693128425633    8.51936868029726
Cl         -6.98517259192243   -8.43448072991812    9.18280761045517
C          -6.31400424983539  -11.04221696749724    3.08976582153540
C          -6.37936651182914  -11.74985551372290    1.92188361207062
S          -6.76796452435280  -10.72101006009112    0.56051631206048
C          -6.16241589041762  -13.16082279866565    1.74542281725108
C          -5.93595202689599  -14.05305462316525    2.78561207106083
C          -5.86699403046615  -13.82186826721048    4.15910791594890
N          -5.79581583068761  -13.68932392727373    5.29840016379122
S          -5.70887077463745  -15.68641537340888    2.23408662488012
C          -5.90906466925219  -15.20061479368944    0.58409568066510
C          -6.14297437458800  -13.83495155879285    0.48615268203021
C          -6.31001866306233  -13.20231583369804   -0.75815996709829
N          -6.42941889856639  -12.71024667622212   -1.78862537438583
C          -5.81985808182974  -16.17447553175577   -0.45285554681050
C          -5.52195592952985  -17.50106695913145   -0.28504701045200
C          -5.49683052079203  -18.23585283252620   -1.49144790093722
C          -5.23126380358380  -19.61097005912064   -1.67545681847683
C          -5.02028194415715  -20.51902404111018   -0.56847219436890
C          -4.17113785292970  -21.58832751783302   -0.50755265530029
C          -4.26953921914564  -22.29735502080532    0.70822086534468
C          -5.19240458499364  -21.79772176630870    1.58179014057450
S          -5.95880141840380  -20.40615045007191    0.89821390078758
C          -5.56510266050051  -22.29767499800953    2.92837350460599
Cl         -3.29817940931028  -23.67703402780533    1.04719547199478
C          -5.19939517532691  -20.06157284788906   -2.99301143333722
C          -5.46869386188086  -19.22234861894828   -4.10538866950909
C          -5.79499324163732  -17.86357376373217   -3.91628158095423
C          -5.76500970978778  -17.40212717874426   -2.60707299475041
S          -6.08521148369791  -15.76187530772523   -2.13091828691202
C          -6.16717727633829  -17.02345888456271   -5.03269532747927
C          -6.96046921859476  -17.35605310535453   -6.09552822287067
C          -7.11088084138434  -16.29743614597775   -7.01531298933861
C          -6.44614617340967  -15.15457994533341   -6.66974746317135
S          -5.61353120865852  -15.37758799896881   -5.16972612796445
C          -6.38440692793309  -13.86046128554858   -7.39225142869431
Cl         -8.04903868770666  -16.46269843723545   -8.45115416204163
C          -5.36500779742104  -19.91304850160611   -5.32926694109255
C          -5.07022175686937  -21.24489305895837   -5.19177259986113
S          -4.86622089247208  -21.68816771043850   -3.50952745598855
C          -4.83272444563204  -22.20324431201386   -6.21053022968693
C          -5.22285828252546  -22.16282405420665   -7.51169205816703
C          -4.50603434475353  -23.01121157973935   -8.50976863127234
O          -3.76252469385467  -23.93225957283687   -8.27140982328152
C          -4.85558264256054  -22.43802370495431   -9.82529053785706
C          -4.35958764768112  -22.74963468368956  -11.05854610650139
C          -4.81704463868666  -22.02894362618724  -12.18468145639894
C          -5.77697304966753  -20.98969683253803  -12.00921079151236
C          -6.21882751473913  -20.26634221058015  -13.13518929218801
C          -5.73412090072439  -20.56331921163094  -14.37789621984822
C          -4.78681201877132  -21.59289924547033  -14.55107014120948
C          -4.33716306969649  -22.31105352890660  -13.47862348422136
F          -4.32801027761448  -21.86082076641054  -15.78034108088752
F          -6.15510138462071  -19.87591146951233  -15.44678172460046
C          -6.27908782184052  -20.69497565547070  -10.72133733050846
C          -5.83156876138340  -21.41653018316251   -9.64733835493301
C          -6.18397366091222  -21.35164769900174   -8.23172753616208
C          -7.35476385316438  -20.83681704893618   -7.74321799633930
C          -7.77581764342445  -20.96606432025513   -6.40409683856035
N          -8.17831254381661  -21.05830162885271   -5.33316449657184
C          -8.32084324717230  -20.19257870160621   -8.54570966872536
N          -9.13652712667768  -19.65894085923044   -9.15073699381890
H          -8.21821978147621    3.75405460224125    1.31354544769284
H          -8.08885336397657    0.94879389822028   -2.77148226491693
H          -8.07442965108449    1.76729445941381    2.71154394478362
H          -7.93872049519731   -1.10795723502629   -1.35818399189633
H          -7.43483052757067   -3.33799137532105    4.48603563262254
H          -7.63515834178073   -5.20674848445316    1.04853842713676
H          -6.11681501283964   -9.01257094015632   -1.32395676129443
H          -8.95855190518518   -6.43256008344462   -4.34437934688053
H          -9.55314252955469   -5.28132837809660   -3.12964699745927
H         -10.40837899075882   -6.79901059318259   -3.40073070369407
H          -7.77332169827612   -7.76629265718031    6.40602856507806
H          -4.93658721716574  -10.25392293508185    9.50570235026145
H          -3.49909948436891  -10.17908410065148    8.47293909717340
H          -4.58337988255059  -11.56427385806825    8.36319195902714
H          -6.10189427938542  -11.49884020170438    4.03645132905727
H          -5.31124398789838  -17.92547496735762    0.67996366757497
H          -3.46818586436759  -21.84793880857729   -1.27671009921426
H          -6.55839267726200  -22.74695976343581    2.90865192406819
H          -5.57993715476875  -21.48362782447921    3.65111058312063
H          -4.84936530486624  -23.04999576535109    3.25036980868593
H          -7.47542492898114  -18.29447920568590   -6.18689732392061
H          -7.02008838166536  -13.90222968488723   -8.27294865985543
H          -5.36308274186275  -13.64108535439457   -7.70250429269189
H          -6.71863073317146  -13.04905277745589   -6.74724956186656
H          -5.43568317676241  -19.42445708673946   -6.28402168489196
H          -4.19531692092916  -23.04025930705131   -5.94336540323975
H          -3.62599024188872  -23.53285986389433  -11.17385156073474
H          -6.94631078048824  -19.47804127585653  -13.02024640712636
H          -3.61161159953507  -23.09516487806603  -13.62833916906346
H          -6.99606535590717  -19.89651391505775  -10.61383176997426
