113
 SCF done       -224.390076728456          0.000615643571
C         -10.86720342688936   -4.10137840912650  -11.89198285187780
C         -10.97689377650905   -2.75011352329175  -12.06462074270191
F         -11.44386729236776   -2.25396793750860  -13.21855372372636
C         -10.60141353053906   -1.86289908364100  -11.03637994280878
F         -10.71870544378535   -0.54195867796206  -11.23329537876842
C         -10.12103736637982   -2.33949350343032   -9.84898414541243
C          -9.99536633575762   -3.72664904027920   -9.64097354943549
C         -10.37555277018038   -4.62515111602715  -10.67944431461570
C         -10.25906021320565   -6.02203484678174  -10.49320636661670
C          -9.77308861817874   -6.50343859507942   -9.30651749569350
C          -9.38756620130079   -5.59945856839449   -8.28032421532064
C          -9.49462463590063   -4.24691368420782   -8.42686014035020
C          -8.87358666798100   -6.35681471240096   -7.12084684507500
O          -8.51324482761840   -5.86559389911877   -6.06952649907305
C          -8.88611484543359   -7.77598618330416   -7.53371963737663
C          -9.53945617715588   -7.86289743197836   -8.82771207584177
C          -9.94955924404659   -9.00214192460862   -9.47168921722433
C          -9.84305426744134  -10.31713083436877   -8.97093394434994
N          -9.82222313639193  -11.41311726660282   -8.62770836408868
C         -10.59709072658892   -9.00557030147346  -10.72484714718838
N         -11.12037362643987   -9.07554408809918  -11.74444178290661
C          -8.27364923267117   -8.84853673817823   -6.93066622708214
C          -7.60730827152624   -8.96595142304039   -5.70274913182769
C          -7.48919609494390   -8.10561271966599   -4.60867631733770
C          -6.71684592671484   -8.63991180681105   -3.60203864783494
C          -6.22455304252325   -9.92380870789179   -3.90099035817708
S          -6.74082864467780  -10.48369360684873   -5.42705002015782
C          -5.41171458464754  -10.36457114118980   -2.83921700301026
C          -5.38413396211163   -9.36903211236807   -1.84816370879431
C          -6.23451337998434   -8.18583253410388   -2.24502242009993
C          -7.40685880116552   -7.98983567304741   -1.27900994860022
C          -5.40211239928564   -6.90533910570066   -2.35191725300318
C          -4.57425273357527   -9.70374293943643   -0.78276048986097
C          -3.97356239953685  -10.95074554531369   -0.95927643700073
S          -4.43549971890408  -11.72599967194131   -2.46058899134202
C          -3.04751610619631  -11.58926273360987   -0.12312091899898
C          -2.41757090460166  -12.81062755996883   -0.39040639722108
C          -1.45837989971109  -13.18393440211029    0.60756512882235
N          -0.76217869713745  -14.31502070994564    0.51153710651115
C          -0.99505040918026  -15.06890832232006   -0.54281817944834
C          -0.23051597477142  -16.33617734943121   -0.64561590465795
O           0.57050091301831  -16.68751237591862    0.19541947611374
C          -0.51877294162082  -17.14141497144340   -1.84458766421710
C          -1.40062409471475  -16.78493450286852   -2.78441697020369
C          -2.19041757886616  -15.54278658260080   -2.73565083668691
O          -2.98143240823502  -15.24118160729188   -3.60451752672590
C          -1.94490822636141  -14.69007351308490   -1.54615495805046
N          -2.63979527289704  -13.57522228049047   -1.45828685678655
C          -1.35185962754565  -12.25312204246641    1.64857002808133
S          -2.45633699097044  -10.93438151733941    1.37888692402960
C          -0.46165861208006  -12.33855336597834    2.72741633422750
C          -0.34094815552895  -11.47578698330013    3.81725795910305
C           0.68229334854746  -11.85543122755211    4.66121613855634
C           1.35413853585348  -13.00382887894576    4.21107536983554
S           0.70707217281201  -13.64401466567739    2.75639281003920
C           2.40902555069841  -13.28328126394404    5.09996331765835
C           2.40512416346971  -12.34180491845093    6.13849966017780
C           1.29429662139671  -11.33804577489087    5.94174382876072
C           0.28778341406547  -11.36986272528512    7.09503680343376
C           1.86644113692826   -9.92970858639767    5.75411108974823
C           3.42151425678906  -12.54831488271111    7.05036606805654
C           4.25282291920550  -13.60659868277874    6.69166596971570
S           3.69432761086091  -14.40342985849886    5.22658590292783
C           5.37883071924340  -14.05665237446637    7.41175716837884
C           6.44161916772345  -14.78397280521811    6.96171294261105
C           7.27098278983517  -15.56002086335512    7.91969179167018
O           7.26004788229568  -15.47359631174864    9.12630335174269
C           8.05736124713612  -16.49057151076757    7.08190163191052
C           8.88765919259205  -17.50240121089348    7.46850344162049
C           9.51964671805523  -18.28854993270533    6.47849439593217
C           9.27251958814823  -18.01325515592067    5.10209686467681
C           9.90027601674578  -18.80656186742862    4.12099147601389
C          10.73729836594863  -19.82240891535163    4.48842579826269
C          10.98277740230069  -20.09241298647210    5.84950882346170
C          10.38738971807742  -19.34250785377828    6.82473688137874
F          11.80766340092946  -21.09542154577338    6.18112646808893
F          11.33478294378325  -20.57424996446347    3.55417333223147
C           8.41393646680912  -16.95290920167638    4.73129240751529
C           7.82161793105134  -16.19895622057915    5.70774520104514
C           6.93911940563810  -15.03806092261724    5.62838805927035
C           6.85333740235925  -14.18624885120654    4.55688892288488
C           6.23323114048810  -12.92180422199615    4.61970699809003
N           5.78092367477560  -11.86665606372957    4.64725498636872
C           7.46568703987420  -14.43176453342270    3.31192343228076
N           7.93796166450599  -14.59254522464500    2.27801402512760
H         -11.16030820279560   -4.76680550912083  -12.68897046877553
H          -9.83727218951247   -1.64724884222622   -9.07176113080963
H         -10.55081044336051   -6.67438912445137  -11.30004650798102
H          -9.19712091920496   -3.58329588801921   -7.62915675962915
H          -8.25804930137934   -9.76505470773036   -7.50966208064582
H          -7.95199719309785   -7.13656594837126   -4.59524411957335
H          -7.99630617647544   -8.90102245712214   -1.20849390410148
H          -8.04700902281080   -7.18622891846989   -1.63305647604904
H          -7.03651516918469   -7.73578541981376   -0.28910827813227
H          -4.56069010311730   -7.05591221311496   -3.02425045296458
H          -5.02173741711435   -6.62335728238858   -1.37343050323095
H          -6.01625908805303   -6.09672228761373   -2.73906838411831
H          -4.39165135977721   -9.09949834995034    0.08785301584967
H           0.04096526190947  -18.06399845643381   -1.91975687563608
H          -1.58241406680425  -17.40730272811771   -3.65025718701518
H          -0.98574115350276  -10.62489559066022    3.94646071820367
H          -0.11549059251770  -12.37229248016401    7.21868037592165
H          -0.53255029426383  -10.68612094641055    6.89252872312539
H           0.77236227795707  -11.07183180690514    8.02112634084009
H           2.60210775954693   -9.92653575452933    4.95366554236725
H           2.34959909541818   -9.59959918126737    6.66986679205574
H           1.07005874902271   -9.23315034639621    5.50473689501341
H           3.61049443868809  -11.94685363389698    7.92102503468529
H           5.37139219858150  -13.85618540609900    8.47920381941574
H           9.06117906304932  -17.70147586366400    8.51505051223735
H           9.72589699641857  -18.61054453231658    3.07457298598413
H          10.58562283279713  -19.56229002877944    7.86208468066457
H           8.23653172367196  -16.76887812326052    3.68361092482821
