129
 SCF done       -269.306960431324          0.000578861686
C          -4.00726059476264    1.83406677410275   -4.20432640816507
C          -3.28131539258265    2.06608675475532   -5.33894882111420
F          -3.50013573667435    3.16854099747585   -6.06416362401945
C          -2.29512886024985    1.15011094236626   -5.75962851905372
F          -1.59913203003704    1.40325638267444   -6.87396383624379
C          -2.04985333511733    0.01398773332059   -5.03998944550357
C          -2.78178027582843   -0.25344293670648   -3.86705729853474
C          -3.77739635763426    0.67269364055054   -3.43938405538740
C          -4.51939504803645    0.42943480810141   -2.26126601996035
C          -4.27701612960594   -0.70782072436122   -1.53558389014454
C          -3.29189511557323   -1.63468685000629   -1.97892971000812
C          -2.55243897453373   -1.42121745634341   -3.10604936522588
C          -3.23665090807576   -2.77574421431432   -1.04502003332471
O          -2.41636082673930   -3.66682062358461   -1.03807508473704
C          -4.34723048460133   -2.55261894390128   -0.08299663006672
C          -4.85642455368683   -1.20803982722581   -0.29218077360810
C          -5.66504787244511   -0.48333738417311    0.54610268820747
C          -6.09750102747508   -0.85027759966971    1.83317806271095
N          -6.46623980079250   -1.00503455542192    2.91214024738965
C          -6.11939402408421    0.82357492980600    0.25487947751000
N          -6.52571586903856    1.88021880088139    0.06995900216785
C          -4.84037744118853   -3.44507368172052    0.82236248955318
C          -4.51456401958867   -4.82797474229364    0.96850945921978
C          -3.96838426862383   -5.61051503122184   -0.15400324284425
C          -4.62735793862462   -5.63898901129831   -1.38057920727754
C          -4.22545575817282   -6.51785250389966   -2.36439708235504
C          -3.13443552436213   -7.35791636053175   -2.15688369819049
C          -2.43591385254446   -7.28727851747103   -0.95350513064960
C          -2.86023269654247   -6.43176819370535    0.04164374176104
C          -2.79856857202553   -8.36211644217510   -3.20521233710222
O          -3.63162294294517   -8.87745749482486   -3.89887611451403
O          -1.49864390456101   -8.68621238367422   -3.32411852946925
C          -4.79271936137415   -5.48141801019543    2.14808831082279
C          -5.19182074239065   -4.73498238709510    3.33326133448708
C          -6.27188818961560   -5.17358591700281    4.10414348067966
C          -6.79621885141302   -4.36116848783602    5.08726727602140
C          -6.25112549975864   -3.10091200759488    5.31264571229667
C          -5.10203944825942   -2.71038687681863    4.63213027757326
C          -4.57151891090932   -3.52590146706367    3.65562882675533
C          -6.94096300931442   -2.14295726570163    6.23878710495547
O          -7.32202746814216   -2.43790869798911    7.33705730734724
O          -7.11854367500371   -0.92678631310919    5.71978092532250
C          -4.68374409321343   -6.92812885572610    2.25593971885957
C          -3.98599254637777   -7.51876812957397    3.32392340088803
C          -3.72956216710489   -8.92995838823320    3.37774682924962
N          -2.93835575307974   -9.42382003846868    4.35964773642320
C          -2.49318614900422   -8.62602731741860    5.26796493821177
C          -2.78690729176779   -7.22901221015337    5.24063840249695
N          -3.47939740414275   -6.70918679696737    4.28692603892275
F          -2.32228155269313   -6.42210050351112    6.18527959524256
F          -1.72258242537042   -9.13856948143014    6.22055542406696
C          -4.21863929428689   -9.81140130880013    2.39581144566410
C          -4.98280529243942   -9.22863151823624    1.36951118496923
C          -5.22429673783304   -7.80773438736423    1.30431124456886
N          -6.01504970662781   -7.49228850903350    0.27049871927196
S          -6.38542890873510   -8.82830580467651   -0.53130132345536
N          -5.59492448211690   -9.87587506794709    0.37139033275319
C          -3.91377427518029  -11.22915310132122    2.35792688476408
C          -3.63810943685523  -11.76479488990881    1.02216728411081
C          -4.21044661879096  -12.96419548205349    0.59712466859600
C          -3.97973927858207  -13.42669470017321   -0.68231451633542
C          -3.16583980988972  -12.70717075492792   -1.55281814973003
C          -2.57892220862653  -11.51564926848646   -1.13044460766389
C          -2.81951412970658  -11.04920761057192    0.14296156733859
C          -2.96506412436720  -13.21719848227425   -2.93144445223656
O          -3.54560258088925  -14.16583711221843   -3.39563053214569
O          -2.06164927467783  -12.51520423402308   -3.62331007488114
C          -3.91873419482730  -12.03625262178742    3.46601564659483
C          -4.44011315226950  -11.56851573060916    4.76217302611728
C          -5.65399980166954  -10.88409754964353    4.83538345321456
C          -6.17304379244361  -10.49842781253847    6.05479670841661
C          -5.48483054214057  -10.79326136632151    7.22859542053384
C          -4.26100934732823  -11.45715150935170    7.16164460867664
C          -3.74437488291403  -11.83862377288300    5.94267232719324
C          -6.02073661709476  -10.43100773316131    8.56158088737652
O          -5.52816435822616  -10.77554548294917    9.60586596018274
O          -7.12276014022709   -9.67243666199566    8.50038992413988
C          -3.35560586666397  -13.35422093525698    3.40056352158544
C          -3.56113593584997  -14.38451368838447    4.26189600760089
C          -2.53252420739629  -15.45290515119289    4.42461462495908
O          -1.63948545266700  -15.72414439849810    3.65924005037478
C          -2.80700227632653  -16.03581353028521    5.75556037781509
C          -2.07328187030319  -16.94600098054307    6.46057297640208
C          -2.50948237846507  -17.33017819628304    7.74863138212303
C          -3.69989022860813  -16.75864414650651    8.28729385927995
C          -4.11963238173163  -17.13929075412316    9.57771622141994
C          -3.39556404566891  -18.04788827732099   10.29762420310268
C          -2.22065345771401  -18.61489507317015    9.76275719544007
C          -1.78579514267765  -18.26414461375969    8.51536000925788
F          -1.53127025659596  -19.50233162015879   10.49033293882624
F          -3.79635512147429  -18.41065160868629   11.52159369887648
C          -4.44669148930806  -15.82686065877221    7.53079320327389
C          -4.00842899521835  -15.47674284558693    6.28219245019185
C          -4.57327044070666  -14.58300346262378    5.28059867516243
C          -5.88047860934457  -14.19373445804371    5.17631955858095
C          -6.37740677120899  -13.60601896881809    3.99480950467873
N          -6.79898078506730  -13.20342487060045    3.00599798669026
C          -6.85033031569302  -14.41323532704224    6.17337979857820
N          -7.66071567400713  -14.54868907689632    6.97422074782645
H          -4.75601901248360    2.54657457724232   -3.89518854851052
H          -1.29191786338846   -0.67644686455176   -5.37542431182230
H          -5.26605897073437    1.14893932314255   -1.96742928540721
H          -1.80494679422437   -2.13614001598545   -3.41447862817170
H          -5.61519031532155   -3.08559904655448    1.49068714935247
H          -5.48313386558380   -5.00070593359060   -1.54105347432948
H          -4.75437559140324   -6.57893207627588   -3.30332098956996
H          -1.58670231195459   -7.93212833203083   -0.76761676886447
H          -2.32639531192693   -6.38886763166316    0.97944864704598
H          -0.93020440755938   -8.14205183393004   -2.76238560019185
H          -6.73046443021578   -6.12558741634412    3.88029838923385
H          -7.65598311611296   -4.67034136288165    5.66167243743908
H          -4.63021556502562   -1.76652872744087    4.86363607735716
H          -3.67418832941942   -3.23332100271533    3.13096198974547
H          -6.85559820840878   -0.87690481526552    4.77775547136614
H          -4.87902166378571  -13.49490240060392    1.25768022331455
H          -4.43013494983134  -14.34265062353495   -1.03294142260799
H          -1.94853558139224  -10.96964312042235   -1.81440691873213
H          -2.36465665214966  -10.12834120588417    0.48101493827729
H          -1.99464772355437  -12.85511308435835   -4.52899053870827
H          -6.20463613321544  -10.68449433309001    3.92785503389325
H          -7.11887637929914   -9.98270245966519    6.10800855171235
H          -3.73211027222271  -11.66220699919088    8.07987427681472
H          -2.78306331232438  -12.32783283014356    5.89592718126045
H          -7.43644306354449   -9.47182953745118    9.39635938690064
H          -2.58231995738499  -13.51532594102343    2.65655394392008
H          -1.17057130410650  -17.36584569778458    6.04357166429702
H          -5.01689752917656  -16.71587464099801   10.00118297131912
H          -0.88416488376791  -18.70622175247352    8.12119282097479
H          -5.33981712953021  -15.39932624252917    7.95881974408223
