107
 SCF done       -216.183779182654          0.000534945798
C          -2.22172903893166    2.31450971237638    5.21291463658287
C          -2.11740939100634    3.46825396988706    4.48809460372530
F          -1.84519913364527    4.62775965186870    5.10250758352111
C          -2.29423425084270    3.45540254036546    3.09024892436785
F          -2.18720915926912    4.60247061054378    2.40450736187739
C          -2.57287723238150    2.28832517223373    2.43600523027215
C          -2.68744283324174    1.08289087487074    3.15513232815317
C          -2.50845903882946    1.09429462048045    4.56847321182544
C          -2.61749318142137   -0.10335056517483    5.31187654022631
C          -2.89960215993117   -1.27587243536238    4.66193047244093
C          -3.08458363553823   -1.27543369368102    3.25347021203544
C          -2.98075966352248   -0.13753959845699    2.50722038366064
C          -3.39929995137951   -2.64400720949166    2.79632102426473
O          -3.58843312485216   -2.96695965127696    1.63981112995894
C          -3.43790316420271   -3.47697749515673    4.01576626736210
C          -3.06657713488365   -2.64405933510802    5.14638087912932
C          -2.84682684781925   -3.04026548081884    6.44172642518426
C          -2.91640637763090   -4.35717950982766    6.94340507328082
N          -2.92728670858211   -5.39229602966460    7.44236077357441
C          -2.47723284529962   -2.16188017383832    7.48228740768987
N          -2.17706299127580   -1.50807614095470    8.37723096221954
C          -3.81821663169661   -4.79169495982727    4.14695106358624
C          -4.18287543417438   -5.76295577862844    3.20512611078333
C          -4.23737862393962   -5.76437351479643    1.80980449833226
C          -4.62910221646971   -6.98251133316547    1.29934231101360
C          -4.88447434799939   -7.94382922041079    2.29336019508301
S          -4.64240728448323   -7.33967327098017    3.86834343208404
C          -5.24468658366634   -9.15890181802660    1.67555630471617
C          -5.21897658560163   -8.98594058061865    0.28774392023275
C          -4.84500739572663   -7.56885304495851   -0.07604998649281
C          -3.56499356033448   -7.51975940573267   -0.91399153428730
C          -5.99268865400541   -6.85968959081089   -0.80210989613615
C          -5.52032580781204  -10.14881564402599   -0.40081064398678
C          -5.78133889146139  -11.21421723826064    0.45337972334149
S          -5.66903835103950  -10.75563549913750    2.13877935055284
C          -6.07202568654010  -12.57312800436906    0.11949304505273
C          -6.02146231391898  -13.11136531155603   -1.16205657946363
F          -5.71813952833604  -12.33473766786790   -2.21671142088105
C          -6.24734053434694  -14.46305525497692   -1.44014687671292
F          -6.13326174958428  -14.82864045044703   -2.72986531457245
C          -6.56366286399582  -15.42213443476723   -0.48185462875529
C          -6.66394908470933  -14.90558861190431    0.84248266714163
C          -6.41178207847794  -13.51820224176740    1.12625373002108
N          -6.53541595001219  -13.24409780905632    2.42023067652284
S          -6.92979400724916  -14.58490969142451    3.21098047772918
N          -6.96126728645362  -15.58140821887722    1.95001315749529
C          -6.73918751414459  -16.80864748313805   -0.77937640816025
C          -7.14487847812675  -17.80251619009475    0.10382657119689
C          -7.16579480531098  -19.05422282594494   -0.48639194844092
C          -6.76873659583477  -19.02471549092759   -1.82781667007081
S          -6.39115504673910  -17.44921231786076   -2.37381056811885
C          -6.78513269245518  -20.33845331121830   -2.33798305056278
C          -7.19289159802858  -21.21929524415178   -1.32701034956883
C          -7.49662938334339  -20.46346527286594   -0.05420538500313
C          -8.97623822377735  -20.59161714255945    0.32128362187974
C          -6.60167719437952  -20.92042001590811    1.10057028627128
C          -7.18883304167170  -22.53704249486158   -1.73853031577547
C          -6.81036465863969  -22.68434310608077   -3.07306078130924
S          -6.41805206803800  -21.13300946090662   -3.80433212688001
C          -6.62155746498423  -23.91235834177100   -3.73326312299131
C          -6.40952747263926  -24.17106138206425   -5.05757895108315
C          -5.70888979697532  -25.41997122709693   -5.45164391271761
O          -5.49852352529127  -26.38777988886412   -4.75643172784828
C          -5.26737657104373  -25.18934251981684   -6.84431649818864
C          -4.47012591160052  -25.96699360349690   -7.63287645819537
C          -4.14816936194647  -25.52156281346334   -8.93508580113824
C          -4.65833575908860  -24.27257692438606   -9.39425429297413
C          -4.32567777679280  -23.83136989375290  -10.69064200778640
C          -3.52681458288393  -24.59498574858793  -11.49460917629322
C          -3.02400130512254  -25.83030504803446  -11.04017552403874
C          -3.32762792036405  -26.28539377566078   -9.78773700795748
F          -2.24101743079453  -26.55788247581767  -11.84926409909009
F          -3.21241847549562  -24.17396183957151  -12.72728199481850
C          -5.48997862148715  -23.49246706092225   -8.55794654316992
C          -5.79327063240780  -23.94806366749503   -7.30390361837145
C          -6.63542184761716  -23.38827038029100   -6.24968327997035
C          -7.65367121147450  -22.49020286385170   -6.44433001843627
C          -8.63080890388896  -22.21968040108870   -5.46503933010271
N          -9.46505353160779  -22.02041144297430   -4.70182036735898
C          -7.89078137772921  -21.83025281333618   -7.66561392792544
N          -8.10962345179485  -21.26067282570014   -8.63797553173501
H          -2.08246801404339    2.34135304809166    6.28235939418818
H          -2.70562652704080    2.29531962698702    1.36548675335836
H          -2.47900484566238   -0.05773360579320    6.37952718007216
H          -3.12338440108334   -0.16821692711857    1.43768063996699
H          -3.85658633442717   -5.16366220812953    5.16409619798272
H          -3.99160699399712   -4.89185137450273    1.23306017866595
H          -2.75284289432834   -8.02513626890083   -0.39646648436925
H          -3.27746311466859   -6.48668582228027   -1.09040181772852
H          -3.72714603898317   -8.00927710355256   -1.87079562924297
H          -6.90137445191016   -6.90024098821022   -0.20571699958121
H          -6.18130000437776   -7.33925838024214   -1.75910287710612
H          -5.73410766369966   -5.81814117116211   -0.97352634795209
H          -5.55061786492477  -10.22768182814207   -1.47068648410708
H          -7.39896929367932  -17.58289413066083    1.12344830844437
H          -9.60507439232814  -20.28003748604354   -0.50925753068816
H          -9.19648812704229  -19.96619439878302    1.18260771598239
H          -9.21030045452042  -21.62450408023897    0.56573877882601
H          -5.55307120555177  -20.83420050280168    0.82500169213660
H          -6.81315630769708  -21.95723492559241    1.34910952562471
H          -6.78365809199837  -20.30435292632380    1.97727736488506
H          -7.46081205617244  -23.38061337076862   -1.13005195467114
H          -6.52728019900883  -24.77623747033365   -3.08113159421222
H          -4.08863010813950  -26.90905733886017   -7.26953400081885
H          -4.70540167285673  -22.88962878372913  -11.05495720166441
H          -2.93437111903676  -27.23321860948742   -9.45501494706944
H          -5.85773427315153  -22.54734691544945   -8.92489475801939
