140
 SCF done       -281.632532441621          0.000799341397
C          -9.76569776484353    1.20415000428160    8.01272918185650
C          -9.79557679944925    1.36779181630837    9.36906054287540
F         -10.23384024495870    2.51691295489895    9.89940624023120
C          -9.36816409682914    0.33371003496249   10.22630563294205
F          -9.40798837164555    0.52316362641320   11.55183011396620
C          -8.91805532175844   -0.85105738944400    9.71482409757941
C          -8.87747448542430   -1.05108136273011    8.32133796663267
C          -9.30701087883592   -0.00562740052149    7.45335344178937
C          -9.27540948267073   -0.18274305680937    6.05123849214458
C          -8.83297097509739   -1.37130090868597    5.53204907559014
C          -8.41353641842109   -2.41116304584898    6.40755598064679
C          -8.42573023838524   -2.26815895286329    7.76490836692996
C          -8.01101092659024   -3.58468060583083    5.61132103606020
O          -7.58315083844714   -4.63497513294724    6.04689873592411
C          -8.24280614117347   -3.21842333086409    4.20253340592183
C          -8.69800571987588   -1.83922303580344    4.15476829208192
C          -8.93933688456145   -1.08122384668453    3.03874204390551
C          -8.78193649214875   -1.50199909592757    1.70122412472848
N          -8.67425893842314   -1.75904790530299    0.58696181419605
C          -9.37351387128041    0.26124858090542    3.07593918950438
N          -9.72890426484650    1.35197054707185    3.03584892786011
C          -8.11269304170869   -4.04807538794725    3.12365804235871
C          -7.71289972829290   -5.39783536573087    3.04479133989653
C          -7.70821966745601   -6.07968051730179    1.84078789813766
C          -7.30384804639488   -7.41832770136710    1.93980378174548
C          -7.20208910931003   -8.37484100383276    0.89978422625990
C          -7.40628671426673   -7.99799934069195   -0.48136669133802
C          -6.97674602977832   -6.86296393596271   -1.11072483428294
C          -7.34249174604736   -6.82235155813685   -2.47268322689129
C          -8.05614203712015   -7.90677131630685   -2.89671141740741
S          -8.27372855866369   -9.02318076212253   -1.59257143164200
C          -8.59633961634913   -8.19079240197145   -4.24956040830872
Cl         -6.91736089801300   -5.50766848274333   -3.50011116685436
C          -6.87808829062838   -9.66563225628137    1.28805120845041
C          -6.56999731897398  -10.02592830867754    2.62751952879580
C          -6.61367629375723   -9.05945103072761    3.65297522845620
C          -7.01296684926641   -7.77512773406801    3.28395704899906
S          -7.20254958024340   -6.42604217088156    4.36649214216469
C          -6.25136781257531   -9.36136514873602    5.02271978541258
C          -6.80222573140493   -8.86161047032206    6.16945824648308
C          -6.16230061602465   -9.33362167044177    7.33455276914563
C          -5.11485747819900  -10.17785878295963    7.10324461827301
S          -4.91249812108556  -10.41463768517323    5.40188927349101
C          -4.23626703328998  -10.86016115723775    8.08692762722387
Cl         -6.67026500038490   -8.87084558975404    8.91190536721367
C          -6.26112443625309  -11.40203987640197    2.73939370649626
C          -6.30522965814403  -12.08119352062841    1.55754397009159
S          -6.74645713459821  -11.03336946945948    0.22120302964711
C          -6.05359248534680  -13.47756658813346    1.31229395870508
C          -6.49894450768007  -14.08238728509541    0.14662067192766
C          -6.28058203174226  -15.42522373802238   -0.13457551103425
C          -5.57579385933775  -16.24239651265063    0.73452809295370
C          -5.07664010035671  -15.64973596081108    1.92836771450790
N          -4.36257529839537  -16.41480332101791    2.76729961787444
C          -3.89802282147701  -15.88475644540963    3.86552428659833
C          -4.13925119765298  -14.53231949717809    4.16821109307168
N          -4.82893450275944  -13.75945204514685    3.37288982337074
C          -5.32087945525266  -14.28189660041329    2.23496001609656
C          -5.32133923335056  -17.63373612469559    0.47613263785732
C          -5.85329842176074  -18.40363704746124   -0.52229234153059
C          -5.38301212765598  -19.73562385762859   -0.53030076854964
C          -5.74149320668640  -20.77089737374428   -1.42113552792954
C          -6.82747304011741  -20.60234530371883   -2.36312903784415
C          -8.02652206328296  -19.98287275569437   -2.15050204993958
C          -8.85938981912802  -20.00373474684527   -3.28959301469096
C          -8.31506266882846  -20.62574860873296   -4.37560180414285
S          -6.73285483061828  -21.21484549537780   -3.99152963045200
C          -8.90319248825365  -20.83128228931732   -5.72288725427938
Cl        -10.43074315911912  -19.29618173874687   -3.29056156757898
C          -5.00890401575890  -21.94590571254466   -1.32157930588076
C          -3.97403885005547  -22.13460840596590   -0.36450224415659
C          -3.71327979829517  -21.14672562099214    0.61539861623619
C          -4.42457381409682  -19.95674151963082    0.48964298987814
S          -4.22317139756946  -18.53505172510572    1.48700641825991
C          -2.82845569106574  -21.36851828589825    1.73772294138722
C          -3.00215397706553  -20.90737354166079    3.01452852197871
C          -1.99178325826561  -21.33341142775288    3.90022325942614
C          -1.02432111191514  -22.10986821336359    3.33060382293068
S          -1.36748279346497  -22.32069278419013    1.64854186742935
C           0.14079408954322  -22.77445688106551    3.95944794525354
Cl         -1.99386013895822  -20.90520901729905    5.56644977973032
C          -3.38579565395148  -23.40417689457918   -0.48548020381545
C          -3.96083887334946  -24.21078951190333   -1.43734891311174
S          -5.24687142196078  -23.37241992058841   -2.28702386009320
C          -3.60578529334304  -25.51991214508437   -1.82860077180680
C          -2.72116570257697  -26.39124671536815   -1.26168897310649
C          -2.19486150639687  -27.49832516362266   -2.10869400587449
O          -2.65921144222929  -27.89955426298818   -3.14983548701122
C          -0.95752483666592  -27.94585097472275   -1.43623800107663
C          -0.02642705493260  -28.84696714173488   -1.86407482198056
C           1.11585091510241  -29.08496251741890   -1.06673757686429
C           1.27051462216742  -28.37904401944273    0.16154225049172
C           2.41794389161325  -28.61252240533109    0.94573044006976
C           3.36547365528899  -29.50603932670216    0.53168638907037
C           3.21033692801913  -30.20523778137775   -0.68192874767331
C           2.10912280865617  -30.00048914778952   -1.46513928163632
F           4.15613543903690  -31.07434912906098   -1.06358177105838
F           4.45563883401143  -29.72551549407837    1.27879409073843
C           0.28226601800090  -27.46070548892016    0.58462685286523
C          -0.81878894473058  -27.25104736618154   -0.20127800194950
C          -1.99677279949995  -26.40691400827422   -0.01019299697016
C          -2.42345685281719  -25.92794398966590    1.20295990535175
C          -3.70870300474826  -25.38895714254373    1.41809928085427
N          -4.75372562082616  -24.97201904537830    1.64364508049216
C          -1.64493585455446  -25.93896196656542    2.37471746603500
N          -1.03824737974147  -25.86821539562258    3.34807393008719
H         -10.09567899658800    2.00601261860038    7.37086635135123
H          -8.59499425383090   -1.63324530451602   10.38374617429170
H          -9.60859799302408    0.62809291245365    5.42430610657815
H          -8.09923540437545   -3.07446034214669    8.40395476298004
H          -8.37035782239403   -3.63381889384307    2.15614890898676
H          -8.02403479692024   -5.61732019471467    0.92283061165648
H          -6.37930851222573   -6.10347699769368   -0.64144300810353
H          -8.50174636896943   -7.30662289408523   -4.87484759885423
H          -9.64467632845941   -8.47863207587535   -4.19204741450469
H          -8.04853896339364   -9.00985100419421   -4.71601440850822
H          -7.65205930096912   -8.20628878756254    6.20049146166030
H          -4.39452897701663  -10.43542831868000    9.07505462195948
H          -3.18918852164165  -10.74693569039372    7.81160945520724
H          -4.46121395036580  -11.92642792339659    8.12700486858971
H          -6.02498704530867  -11.89483244248205    3.66200931284258
H          -7.04676035914426  -13.48511156126304   -0.56806699678211
H          -6.66278491744547  -15.82818229005536   -1.05901392260328
H          -3.32527457690003  -16.52908160504173    4.51727287739505
H          -3.75917384857044  -14.07543613131000    5.07172415510277
H          -6.54569124592143  -18.03026683135642   -1.25345012085535
H          -8.32983280973816  -19.56761417198016   -1.20722658500438
H          -9.86709662505784  -20.33221162033787   -5.78312542538487
H          -9.04320392800367  -21.89381517972761   -5.92031362773232
H          -8.24621155418342  -20.43162146149695   -6.49414107844631
H          -3.84430127429663  -20.32286367949088    3.33324009341714
H           0.28686301749113  -22.39037751966870    4.96581933247566
H           1.04415886576502  -22.61020571470042    3.37432232465205
H          -0.03445788700487  -23.85163778421242    4.01512436167980
H          -2.51922892496533  -23.70199493427517    0.06970946232196
H          -4.03122731474251  -25.86152610529702   -2.76755231808256
H          -0.15704268917898  -29.36934884015714   -2.79946253816547
H           2.55099098484405  -28.08828311111887    1.87916221728786
H           2.00517397335561  -30.54303836509617   -2.39168440695165
H           0.42713125838912  -26.93587417793327    1.51541933571681
