93
 SCF done       -197.214332534999          0.000585061273
C         -14.86940881254899   -4.08239706740417   -1.76729792042571
C         -15.78415605396164   -4.78459985576312   -2.50054835212783
F         -16.94489814243540   -4.21531152118694   -2.85343696255374
C         -15.52082558297313   -6.11157012001107   -2.89441996113745
F         -16.43593013971806   -6.77668961342836   -3.61360323006563
C         -14.34617750038684   -6.71862029785660   -2.54835032241360
C         -13.38372744736104   -6.02196239054763   -1.79229781888356
C         -13.64776124151333   -4.67909622366771   -1.39592128351618
C         -12.69479508293240   -3.95883395909679   -0.63973603389395
C         -11.51415869071977   -4.56219375430731   -0.29517733338533
C         -11.26149298913744   -5.90539263325267   -0.68868141440447
C         -12.16422076913526   -6.62729236890756   -1.41367980626278
C          -9.94691224330781   -6.33530362921379   -0.16522136813932
O          -9.49840111031364   -7.45919619073895   -0.19274255441573
C          -9.39417723143193   -5.14589146750964    0.53174244237547
C         -10.36105936317748   -4.07445551795418    0.45699983903870
C         -10.20190013643133   -2.79604179246748    0.93027464753070
C          -9.05197249253713   -2.31256952024784    1.58814044379606
N          -8.14816577077486   -1.84121960918591    2.11730984801015
C         -11.17087551501721   -1.77973280547775    0.80300758585815
N         -11.91962940353905   -0.91165006503527    0.73800438851680
C          -8.24286403696050   -5.14843008280226    1.27508386073635
C          -7.20184056792880   -6.08421044105727    1.16012720478476
C          -6.78532577993772   -6.82110811126641    0.05273474433938
C          -5.67225492717752   -7.66223710669387    0.32597424552066
S          -5.23321301065036   -8.51598040880572   -1.10267414452913
C          -6.53443847862279   -7.63677827761463   -1.95018143691276
N          -7.20873377025762   -6.81712968954652   -1.23392156362724
C          -6.77197443704879   -7.88131831075689   -3.38633131049310
C          -5.19861299400039   -7.57668790037220    1.63160101361306
S          -6.14510128151583   -6.40030674332448    2.51593530240570
C          -4.14517645085692   -8.25506491598494    2.28876529863081
C          -3.30873192613096   -9.22765167480272    1.67825117497563
C          -2.26468323121833   -9.87761526311489    2.41398978261171
N          -1.48240244451441  -10.77919643225891    1.80063886182177
C          -1.68645063714525  -11.07149530638579    0.54559386763655
C          -2.71381380053239  -10.43575142588449   -0.17404505121649
N          -3.48632082364640   -9.54533249200152    0.38684747445368
C          -2.01683828966159   -9.63979896221320    3.79114601153367
C          -2.80904716688126   -8.63545217959434    4.38771952925231
C          -3.85052357872061   -7.96883527841261    3.64194313863177
N          -4.47469944811691   -7.05231403497971    4.37940942839314
S          -3.81224908603825   -7.01633028055134    5.84438075005289
N          -2.71333659328127   -8.15459022847142    5.62523383256808
C          -1.05044762784017  -10.41834057882356    4.46800331518454
C          -0.81707266393920  -10.56596116793848    5.83645639905975
C           0.23993424760674  -11.47216976441924    6.12085153461221
S           0.44683057416111  -11.63426331820601    7.82192693160396
C          -0.91154203713676  -10.48018935896019    8.02036269031458
N          -1.42219355790956  -10.05134995243965    6.93443978356386
C          -1.35478749866371  -10.10254194719583    9.37577368226789
C           0.83078557687735  -12.04667636829706    5.00615060990640
S           0.02910705185389  -11.43314996304878    3.56088332256480
C           1.94328467996732  -12.90046069054726    5.00436025437145
C           2.51580775241192  -13.57354950267101    3.95937980221893
C           3.94615513676534  -13.96075343014289    4.04037270723449
O           4.63618659019729  -14.01136040401414    5.03268734109495
C           4.35681223804095  -14.19850423384359    2.63836221444798
C           5.59908015575065  -14.46781403094002    2.14282744415711
C           5.76269708617138  -14.62792016654336    0.74790606627365
C           4.63034581448847  -14.50405493081017   -0.10847931013765
C           4.80331809340004  -14.65844467443402   -1.49847547962795
C           6.04053574496239  -14.92567414950299   -2.01385454395425
C           7.15894232723473  -15.04973026481834   -1.16608734219602
C           7.02416231389819  -14.90448687973587    0.18629345482478
F           8.36071112480219  -15.31122101947386   -1.69889679955100
F           6.20137337437511  -15.07187912987048   -3.33632853370068
C           3.35285786222661  -14.23516622798856    0.43508908303191
C           3.21852225650853  -14.08720552627822    1.78889402352305
C           2.04397915436808  -13.85788229855806    2.62616254412140
C           0.74678450212315  -14.12548060745043    2.26653625809342
C          -0.29215007184065  -14.26559840401115    3.21029009599067
N          -1.13837988041010  -14.46676411331579    3.95938836416303
C           0.32553591725589  -14.33666173434705    0.94267075801390
N          -0.07514127912355  -14.44715379623568   -0.12864765323802
H         -15.08628269871073   -3.06691822299711   -1.47473701596806
H         -14.16059340631826   -7.73572071188333   -2.85613407127200
H         -12.92740961545041   -2.94750981117570   -0.34801634951755
H         -11.94960787371492   -7.64644955387040   -1.69698376799164
H          -8.10933986148657   -4.39402954139493    2.04062818217895
H          -5.84726981576503   -7.76445713035951   -3.94896792266499
H          -7.52134049730620   -7.18722409325994   -3.75632214465577
H          -7.12610036958777   -8.90137705229653   -3.53204299354953
H          -1.04300756221479  -11.81532384834326    0.09819444233419
H          -2.90687620899076  -10.65569157688661   -1.21395484373687
H          -0.53045828846614   -9.65841938500656    9.93225818532128
H          -1.68943310950283  -10.98377634626821    9.92197811503704
H          -2.17045507456624   -9.38902939021654    9.30033964241379
H           2.49263162101545  -12.95211296774401    5.94092241198826
H           6.44692359447133  -14.55773604487310    2.80467022573975
H           3.95726418461235  -14.56996909948083   -2.16196086070134
H           7.89017789711899  -15.00229185612123    0.82201372952916
H           2.51157060701023  -14.14387878249251   -0.23367083145507
