105
 SCF done       -208.257274306167          0.000426285351
C         -10.68520170981440    2.74494858612270    1.49603554856922
C         -11.45023866236092    3.37054095931774    2.43987657563920
F         -11.79535346527576    4.65599407286275    2.28379714120283
C         -11.88578893114286    2.67579116325520    3.58579324168422
F         -12.63713460855883    3.31387018513401    4.49452715441301
C         -11.54847497613331    1.36474900788768    3.77311195278854
C         -10.76030522792516    0.69262338962674    2.81897754049288
C         -10.32045101469220    1.39332367718940    1.65897077208482
C          -9.52887224696052    0.73941307625103    0.68690137020686
C          -9.18817678659138   -0.57480538035438    0.86997722770729
C          -9.63524150735879   -1.26610998967012    2.02784938103989
C         -10.39815458614605   -0.66255860452164    2.98494913843713
C          -9.15439309027722   -2.66204604941250    1.98737312760571
O          -9.34287961972060   -3.49051635492820    2.85621818838593
C          -8.44483097804482   -2.80432743852792    0.69896973512249
C          -8.39636634915686   -1.49930083090063    0.06282747861243
C          -7.68389221890662   -1.14659708765117   -1.05498596791609
C          -6.82462235089942   -1.98705973558783   -1.79431010949806
N          -6.08890779056895   -2.58722506528956   -2.44103856253584
C          -7.67837634851886    0.15205090769110   -1.60619588390958
N          -7.63417876308641    1.18492315467443   -2.10560167914972
C          -7.99595977815270   -3.95202231102785    0.09050966869146
C          -7.92620362661937   -5.27868645232738    0.53866326958474
C          -8.15448105208433   -5.87009500228207    1.78237643097086
C          -7.94542744956732   -7.23190943780858    1.76325218537321
C          -7.55183250304968   -7.71508289862802    0.50337102621454
S          -7.42462439783655   -6.47833933933685   -0.66235667487455
C          -7.38657814857661   -9.11456545241469    0.57895277859515
C          -7.66868212858138   -9.53290098822372    1.88647230510594
C          -8.03861013818455   -8.36017146096615    2.76285979789621
C          -9.45881458679936   -8.49642070012931    3.31803719714950
C          -7.02944606337662   -8.17485570901888    3.90028571004587
C          -7.54626042383428  -10.90348776834497    2.04442053402512
C          -7.17422281211273  -11.52411456631261    0.86105631775943
S          -6.96589987074190  -10.41029130253513   -0.46419266528918
C          -6.96915681172518  -12.91135840337939    0.61553235053692
N          -6.62136944029261  -13.26505746033299   -0.61443287465926
N          -6.42432792980303  -14.49061687309897   -0.97233059889546
C          -6.55259656869079  -15.52083479503354   -0.14663581488757
C          -6.91343355816837  -15.28077917826127    1.21218906345028
C          -7.12893942130574  -13.92134890171517    1.60956545034590
N          -7.45920165339001  -13.82040994826913    2.89271294785625
S          -7.49436844272976  -15.29708035867757    3.53569129734909
N          -7.09296569828758  -16.13120189013801    2.21729036763199
C          -6.32333382191426  -16.81884402880146   -0.68323342753512
C          -6.39923266085948  -18.04453987159566   -0.03834103201880
C          -6.11676464073450  -19.09293057708284   -0.89805313975984
C          -5.82688428545937  -18.65927791773377   -2.19849120867890
S          -5.89963758402287  -16.95456961304886   -2.36992504304745
C          -5.56243261040627  -19.78874113549033   -3.00176713713160
C          -5.66695588409877  -20.94654758582148   -2.22056635166440
C          -6.04972036262656  -20.59866215592217   -0.80166699083526
C          -7.41806038864724  -21.18960847339502   -0.44751313138893
C          -4.98531002579936  -21.05017317920748    0.20159940561162
C          -5.40141486506867  -22.09830174016620   -2.93567846521022
C          -5.13731502335552  -21.84578596703158   -4.27997559814995
S          -5.16533939093853  -20.12193187347224   -4.62971873524197
C          -4.79212761094036  -22.81547991213676   -5.24235063485020
C          -4.79007140208512  -22.72293756391176   -6.60362992256832
C          -3.94214879442777  -23.64509476175416   -7.40255565047341
O          -3.39684139073381  -24.65274032008012   -7.01371850995703
C          -3.86250391503917  -23.02867589736044   -8.74438958590244
C          -3.10976425457296  -23.40381723575894   -9.81916834397517
C          -3.17156735107582  -22.63441244552783  -11.00312026877748
C          -4.01155957789901  -21.48391373686444  -11.04789745765875
C          -4.06079473104187  -20.71695608067141  -12.22911355069982
C          -3.31468910453527  -21.07694248410690  -13.31597627720070
C          -2.48597830136243  -22.21569092570136  -13.27138662466975
C          -2.41508769509150  -22.97915072517456  -12.14006975191958
F          -1.76403079112877  -22.54470848045489  -14.35173101743662
F          -3.36423194455424  -20.34738385176432  -14.43863808225125
C          -4.78759822816202  -21.12491183633908   -9.92179878711860
C          -4.71825236144283  -21.89092521676489   -8.79004348489765
C          -5.41900289393620  -21.79182373840903   -7.51236374036631
C          -6.62286817624664  -21.16423034523681   -7.31948755601167
C          -7.41164583767944  -21.35265538855396   -6.16632234258877
N          -8.09716840930767  -21.53126408893150   -5.26279327679442
C          -7.24651264642944  -20.35573244920905   -8.28986178709035
N          -7.78438017132453  -19.68054493353808   -9.04633476102504
H         -10.35934759843197    3.29161037168476    0.62490031890641
H         -11.88975902492069    0.84675144381549    4.65571064717420
H          -9.21793793924005    1.29710798856425   -0.18125084091940
H         -10.72204962545759   -1.21250275362503    3.85551834009620
H          -7.65100383938274   -3.83485057120552   -0.93041669318917
H          -8.46712424539394   -5.29668868618498    2.63511348134128
H         -10.17010903070633   -8.63872194353381    2.50779783831132
H          -9.72973777924363   -7.59754292570645    3.86552464800504
H          -9.51693311239687   -9.35028541634432    3.98811793024828
H          -6.02263960260855   -8.07556345209292    3.50110437358773
H          -7.05769976420782   -9.03312854515691    4.56665897248948
H          -7.27049560162515   -7.27933916792096    4.46694537836864
H          -7.71305832252573  -11.45657136588577    2.95049016401481
H          -6.65171528197302  -18.12600863200979    1.00296682100637
H          -8.16088861502851  -20.88467139410533   -1.18053321648236
H          -7.73000533970679  -20.84356877118381    0.53455043913255
H          -7.36414286865478  -22.27509940309342   -0.43879115696754
H          -4.01653725519204  -20.62968018359335   -0.05839238121748
H          -4.90721952618871  -22.13434898237248    0.20081367734310
H          -5.25294678853185  -20.71794910353670    1.20129247064722
H          -5.42343364139921  -23.09713302701798   -2.53876924290215
H          -4.39308579162734  -23.74471721585997   -4.84536096615742
H          -2.47500522435070  -24.27535476992436   -9.76844914999875
H          -4.69297123537444  -19.84439465203778  -12.28096672902308
H          -1.77560492553472  -23.84771478253717  -12.12222197362327
H          -5.41043715196018  -20.24618796747640   -9.97725432163259
