99
 SCF done       -219.652840160746          0.000936385622
C          -0.49578793158290    1.80147556314619    0.97653158979809
C           0.71440590685147    2.04764090030639    1.56135568422160
F           1.14952966329670    3.30550005057282    1.70539568853225
C           1.51969644692956    0.98472026926883    2.01962858598147
F           2.70145839484850    1.25590034813940    2.58844311995391
C           1.10289619943965   -0.30988105522346    1.88617015176668
C          -0.13893661328153   -0.59641602763887    1.28616304650363
C          -0.95463062518111    0.47709641260002    0.82322112983257
C          -2.20339790658219    0.21393301354466    0.21703942921200
C          -2.62701677800237   -1.08329323768719    0.07988698775362
C          -1.80674096299753   -2.14782445534679    0.54682477511499
C          -0.59253421345325   -1.92436909878762    1.12994973431940
C          -2.46786821295110   -3.43779547900603    0.27527063276249
O          -1.97463116876754   -4.53670514516055    0.38494630575990
C          -3.80124062212184   -3.08715966316726   -0.29777251646375
C          -3.84660969886192   -1.64431696298481   -0.49259567815605
C          -4.85023741773002   -0.92777999494982   -1.08428041299218
C          -6.02666536434470   -1.47308702286807   -1.64350188386614
N          -7.00343348235331   -1.83817332900566   -2.12324607362940
C          -4.83620567583494    0.47621438584763   -1.23727964508128
N          -4.88235926314045    1.61186005041503   -1.39471364535775
C          -4.74671135965283   -3.98995766072732   -0.64729824929801
C          -4.72251226397665   -5.37997181040477   -0.27224168905553
C          -5.09844424414552   -6.38393666241608   -1.16188877452589
C          -5.01802007203218   -7.76256014422434   -0.84551827453390
N          -5.41889352269673   -8.58807550871691   -1.85282858466741
C          -5.76306881224544   -7.93663868499039   -2.89074394496407
S          -5.64729428237345   -6.19466847166514   -2.79595705975040
C          -4.59177150590828   -8.18757736823004    0.42112067545325
C          -4.31297265696544   -7.18563587882382    1.34505506745667
C          -4.36519105128890   -5.80610851235105    1.01740148764713
N          -4.06114485038532   -4.97348922044766    2.04903781877719
C          -3.74228982572127   -5.62140203965588    3.09982805732961
S          -3.78822867811871   -7.35806175603066    2.99082891242620
C          -4.43174919348536   -9.60896910078378    0.69071579325655
C          -4.93486634588126  -10.22786503625449    1.84510396522119
C          -4.73883549977138  -11.63299763125457    2.09891189933087
N          -5.31057355316703  -12.20268545626976    3.17556608826543
C          -5.95006621680350  -11.45441173309859    4.02838897461866
C          -6.08648789007648  -10.03587185766784    3.81229561695912
N          -5.62284735458876   -9.47762883745191    2.72911196232476
C          -6.75770473173412   -9.23051030076407    4.76743992871714
N          -7.28687851861716   -8.59841908566449    5.56225435167220
C          -6.52664961098810  -12.05144518069689    5.17873154660176
N          -6.98659788949608  -12.48629103567450    6.13284084832216
C          -3.98856943594628  -12.44366201520651    1.22934687500232
C          -3.49706779550141  -11.82964856045060    0.07092173482744
C          -3.72424072016261  -10.42538730493084   -0.19938267974415
N          -3.10585629585117  -10.03504152372883   -1.32056210879786
S          -2.35392604085993  -11.28343300531365   -1.96325539659684
N          -2.72920012859212  -12.39102902619307   -0.87255335821764
C          -3.69294646482214  -13.82440185897284    1.57355565362599
C          -3.76196670378453  -14.87921919642484    0.66911860683019
C          -3.49976451960163  -16.22540858926060    1.03209672141619
N          -3.62180339581745  -17.11165982197189    0.00664471914283
C          -3.99431350823808  -16.53794873794011   -1.07335613914719
S          -4.23047512343361  -14.82002270683512   -1.00118765136041
C          -3.14456852818758  -16.57044942665815    2.34987273604030
C          -3.03005031215329  -15.50009273115899    3.23891127719556
C          -3.30330399189491  -14.15850775630556    2.88014905500271
N          -3.11352560315157  -13.26437546606431    3.89184224042926
C          -2.76644353412477  -13.83837779840580    4.97431851484517
S          -2.60095017126802  -15.57464271800102    4.91641778163148
C          -2.84166031504574  -17.90566211563143    2.77508310809565
C          -3.28683427327296  -19.09296445323536    2.30229065316502
C          -2.52510602514472  -20.33332890550326    2.64317205158782
O          -1.68440145656734  -20.45133874013343    3.50146659311004
C          -2.98177811081293  -21.34270646292112    1.66809599156231
C          -2.50481940631314  -22.60421249039284    1.45488902808613
C          -3.07680672112111  -23.39024956685713    0.42988544721186
C          -4.13429883453761  -22.84939423919046   -0.35853006709039
C          -4.69356984008354  -23.63615395722505   -1.38577458016170
C          -4.22682806722911  -24.89930288038046   -1.61826577703915
C          -3.18198743968797  -25.43342209356418   -0.83701996048473
C          -2.61874626100666  -24.69602061579873    0.16636638053888
F          -2.74344814641351  -26.67366206867889   -1.08885271249856
F          -4.75897578995846  -25.64426044727117   -2.59549448825604
C          -4.61310896494332  -21.54321783742091   -0.10871204347853
C          -4.04824748954751  -20.80107610188095    0.89426287501565
C          -4.34598306610345  -19.45887134366439    1.38330636742857
C          -5.51333174290523  -18.77763137317863    1.17549407563773
C          -5.85535363321968  -17.58498779387029    1.84511612469859
N          -6.18782521832383  -16.62691317640691    2.38214495494330
C          -6.52946653478371  -19.21031625931389    0.29905076535540
N          -7.37134002024997  -19.50521076014825   -0.42295443729542
H          -1.09928686178876    2.62646743755880    0.63142553762294
H           1.73081868927625   -1.11195476579809    2.24136962436906
H          -2.79424115067807    1.04831503195905   -0.12437162116399
H           0.01106597474022   -2.75185012782454    1.47062556804272
H          -5.58795273201292   -3.69068740258530   -1.26027475165832
H          -6.11398668526391   -8.39970027231903   -3.79219617369005
H          -3.46862374687243   -5.14934616914073    4.02337056356012
H          -4.15565426968614  -17.06991278002652   -1.99113744738473
H          -2.57625595178043  -13.31212451350582    5.88943328355526
H          -2.10028793707234  -17.97748529598933    3.56748533713609
H          -1.69996501528221  -22.99630284014345    2.05787289540907
H          -5.49628201075634  -23.24442308219328   -1.99076769739190
H          -1.81998795999051  -25.11896837277450    0.75525923426256
H          -5.40849145623215  -21.15523546837003   -0.72477670841438
