105
 SCF done       -216.694208022286          0.000595569287
C           2.01450072048439   -1.47993792209333    8.07693697885147
C           2.83090206363637   -1.94937973868276    9.06671696173655
F           3.37093350078517   -1.10329964208494    9.95270353908095
C           3.11520750462399   -3.32672123047881    9.16960727854199
F           3.91826228784268   -3.75840590563689   10.15070087637395
C           2.57896403081822   -4.21514591539846    8.28056078258425
C           1.73402605825559   -3.76245610375410    7.24822921960713
C           1.44529980088998   -2.37038177765323    7.14334860142398
C           0.60112898494404   -1.89306201696626    6.11647965488664
C           0.05863359752855   -2.78025493733554    5.22205047914642
C           0.34819340431197   -4.16909972782550    5.33747300301710
C           1.16633943748017   -4.65777990247576    6.31548705773096
C          -0.35441794641333   -4.90698259861273    4.26925873556310
O          -0.21216218420844   -6.07105232458648    3.97464149778730
C          -1.20260846981589   -3.89491414990467    3.58096056814890
C          -0.83177713647294   -2.57583566878743    4.08467328988224
C          -1.21863391087922   -1.36675716034573    3.58039353237463
C          -2.03064636212081   -1.18554597557848    2.43881328399012
N          -2.67013973482662   -0.95923928254164    1.51318256524562
C          -0.81977009425932   -0.12233126701840    4.11642779751183
N          -0.52836004927688    0.91597040297005    4.50797811534616
C          -2.15366056062607   -4.19333990318364    2.67583343900356
C          -2.60739754939512   -5.53345116984868    2.32358497818056
C          -3.13191125021529   -6.39938743970440    3.29711653262666
O          -3.09471430216040   -5.99168978537035    4.60845073292304
C          -2.57794109299409   -6.93302133654657    5.54122241481380
C          -3.74853010204256   -7.59153984377439    2.89043051631078
O          -4.41016470647985   -8.40639963711017    3.77831215749765
C          -5.52218578606328   -7.79905440780765    4.42477831807031
C          -3.64039418198875   -8.00418045079314    1.55607734425483
C          -3.02648680868504   -7.17807521843806    0.62216847115539
C          -2.59130290022255   -5.92379959545117    0.98798268756272
C          -4.14964790153951   -9.31500908227095    1.13166649704587
C          -5.49101104502206   -9.69397227105823    1.22981684540161
C          -5.94047933674339  -11.00570498124968    0.83827602942693
N          -7.25861306867695  -11.31523189525489    0.92275472274197
C          -8.07915883795519  -10.42744191745026    1.36064662205059
C          -7.63659801153798   -9.12296218802766    1.73443726780364
N          -6.39828832836439   -8.78055429717264    1.66165033668269
F          -8.50785643024035   -8.21076731693627    2.16574953045448
F          -9.36585445672043  -10.75414605402425    1.45293555456593
C          -5.06333928552503  -11.96830720360132    0.32700041432651
C          -3.73120001860948  -11.57137336967683    0.16576465231653
C          -3.27932455182793  -10.25583069645582    0.56902338256309
N          -1.96718226128190  -10.09709324333944    0.34751456691754
S          -1.38304517781585  -11.43924968880724   -0.28800996212251
N          -2.72574805978577  -12.30677867476573   -0.32897832005882
C          -5.52748963412686  -13.29860427983175   -0.07104533663272
C          -6.26314423714679  -14.09047192666769    0.82648894244774
O          -6.39812756162817  -13.63259599658012    2.10298078347238
C          -7.66985947506473  -13.74493881826881    2.72206855689028
C          -6.75089572889025  -15.32782031361462    0.39805628666961
O          -7.39311346691404  -16.17916168547788    1.28298713774682
C          -6.49641204703640  -16.88142713659666    2.12502863519747
C          -6.56446147385043  -15.74525439352222   -0.93287886082535
C          -5.77545905871717  -14.96810158011237   -1.78189800810246
C          -5.25703799942808  -13.76888618801711   -1.35132529709816
C          -7.12377844555960  -16.98607273765069   -1.41419529835140
C          -8.30326782329659  -17.55015785206973   -1.07422351404295
C          -8.55578840395122  -18.98882184171670   -1.37316268260988
O          -7.93206162963839  -19.69273069221379   -2.13185032485046
C          -9.67809933754497  -19.37163862488298   -0.49243554746486
C         -10.22368208478283  -20.60739170352364   -0.29193231158341
C         -11.28500566994373  -20.74889755465398    0.62913766824926
C         -11.75483206931019  -19.60300359131573    1.33518170033543
C         -12.81004848565768  -19.75273438011458    2.25812508051757
C         -13.37443308504152  -20.97949125314383    2.46629789078655
C         -12.91037005969395  -22.11140569451548    1.76572996975318
C         -11.88746204228174  -22.00006169954951    0.86661240170846
F         -13.48232898502797  -23.30191198661592    1.99102739760861
F         -14.37802796777722  -21.11921059556621    3.34229861814781
C         -11.17411728236467  -18.33569563465148    1.10372318567241
C         -10.15555805004364  -18.21826363047935    0.19490467854785
C          -9.41366994908396  -17.05359445919884   -0.27649661668679
C          -9.81725954366994  -15.75341610130514   -0.16552348206606
C          -9.22927450118524  -14.68207702293889   -0.87184913070746
N          -8.84350505822608  -13.78625514160571   -1.47630960611497
C         -10.91504816482151  -15.34227559863717    0.61864718917493
N         -11.78478233068147  -14.96546772604313    1.26569758031844
H           1.80790377273584   -0.42309765566308    8.01157979873088
H           2.80704978076160   -5.26549671444220    8.37267378314315
H           0.40023935465773   -0.83520108930530    6.06538269372209
H           1.37442036087301   -5.71516925902696    6.37879924728217
H          -2.66586556098668   -3.39486068615341    2.15260751791291
H          -1.58905818033527   -7.27525879538956    5.22694352132506
H          -3.22586017719584   -7.80080990266831    5.66992417287067
H          -2.49915162392691   -6.39008338634082    6.48223502979143
H          -6.28007033277212   -7.51985060471862    3.68972451171354
H          -5.24128307467323   -6.91080203621828    4.99498326500168
H          -5.92112919381246   -8.55612299331445    5.09788531957544
H          -2.94838673754938   -7.50601629732257   -0.40202443469322
H          -2.18080318795993   -5.25134052735664    0.25038502223059
H          -8.46553812672515  -13.46904124962701    2.02728133119680
H          -7.65020097074598  -13.03886431850522    3.55160025269889
H          -7.86043766977511  -14.74756245741367    3.10982743307723
H          -5.84330797130169  -16.20106970931648    2.67906891976909
H          -5.87824184384499  -17.57015758762547    1.53863325039537
H          -7.11336715202095  -17.44889260139949    2.81996521038995
H          -5.61096961586587  -15.30166489062162   -2.79454089294203
H          -4.66584951774292  -13.16114626956210   -2.01724463275293
H          -6.50459209916187  -17.56091130265567   -2.09557001455732
H          -9.85065002500821  -21.46546803829690   -0.83023948334746
H         -13.18019023191270  -18.89615428834374    2.79950445393286
H         -11.54384702149593  -22.87554099744249    0.33824695718635
H         -11.54387079230431  -17.48668398386741    1.65602052884906
