157
 SCF done       -287.687079210729          0.000314897189
C         -13.29317619824008    1.68158365480154    0.51589179498195
C         -14.62987683165629    1.96159571108439    0.47467984829502
F         -15.05162196857505    3.23317909424122    0.45344131339638
C         -15.58038842947093    0.92109705959951    0.45368948257767
F         -16.88505412637027    1.22550443903992    0.41326248112397
C         -15.18069285441107   -0.38557435755113    0.47310832952486
C         -13.80991872370325   -0.70696879833098    0.51381448507718
C         -12.84784407084427    0.34422928270482    0.53778084383579
C         -11.46716385583368    0.04669642418629    0.58389626902291
C         -11.06167846870803   -1.26240665077199    0.60277077834986
C         -12.02728138802505   -2.30380229782452    0.56518577801462
C         -13.36767633138323   -2.04830674277792    0.52585470152010
C         -11.34750836960181   -3.61654248264825    0.56722430258382
O         -11.90672071163451   -4.69149801230872    0.56773331638113
C          -9.89420681144397   -3.31380088701796    0.52788965427373
C          -9.73716292024151   -1.86940590370001    0.65561812512835
C          -8.56982884400396   -1.18844118213904    0.87933745105058
C          -7.29307734020105   -1.76632150819866    1.05165201052734
N          -6.22428118216708   -2.14717224686345    1.23043983474287
C          -8.49183769077307    0.21410251397674    1.01610467256609
N          -8.36130560552930    1.34890757709870    1.12926433020366
C          -8.84689147200654   -4.14115206809916    0.24306614534976
C          -8.72313198875423   -5.56147255467488    0.11911008489001
C          -7.55061638126185   -6.04468273150098   -0.49515895803179
C          -7.31436656643248   -7.38932679025375   -0.62614944722813
C          -8.22861245266091   -8.32523911770179   -0.12711615734381
C          -9.39840636697660   -7.85235889400224    0.47475442270475
C          -9.64161761792514   -6.50415512079281    0.60553822198557
C          -7.99001200938141   -9.76295426199523   -0.26672745643730
C          -9.16140929156043  -10.56765509650553   -0.65106319640587
C          -9.44735467240366  -11.77038779361320   -0.00722302611019
C         -10.55841512030675  -12.50883880008523   -0.36612152528602
C         -11.40149419845654  -12.05919478977312   -1.36943314968283
C         -11.13287894448281  -10.85909868479368   -2.00638808739715
C         -10.02547647050580  -10.11452914851026   -1.64661263016016
C          -6.77111487002985  -10.31734144319713   -0.04339522847735
C          -5.67399667192487   -9.55992146885562    0.57928647395074
C          -5.89886181422173   -8.76860856568583    1.70500117525745
C          -4.86108625271789   -8.06494917987733    2.28510400734630
C          -3.58388689166756   -8.14171878620290    1.75381003224788
C          -3.34674137744247   -8.93861030280884    0.64581824093677
C          -4.38068109556804   -9.64930714352923    0.06627070189498
C          -6.45581766465966  -11.70593203876740   -0.39525581722963
C          -6.84595847447732  -12.24645470467472   -1.62171892411189
C          -6.49268803914561  -13.53064262526953   -1.97087655995984
C          -5.74001963097528  -14.32576591105148   -1.10297431302989
C          -5.36232244086112  -13.79075683144421    0.13088922559671
C          -5.70173783709839  -12.49976390397555    0.47078486759524
C          -5.34329925004458  -15.68023510202585   -1.47071238999498
C          -4.94613040172502  -16.02406684376869   -2.77222685132841
C          -4.55159913296304  -17.36470080791007   -3.12815175471682
N          -4.24263083199963  -17.64142510673007   -4.42040121727989
C          -4.24675230777206  -16.69105095577712   -5.28843499131816
C          -4.54584289418263  -15.34908197026776   -4.91663848481731
N          -4.88954194301456  -15.04761977881126   -3.71354083538599
F          -4.48054050062318  -14.36338968917575   -5.81225665733406
F          -3.95972675416683  -17.00003015361684   -6.55344144253113
C          -4.51506176161356  -18.40961153217797   -2.19136732373315
C          -4.91961111885228  -18.07139972929819   -0.88902320981273
C          -5.31527184194140  -16.72520970245726   -0.53157860489607
N          -5.65170097817362  -16.64081209761007    0.76179400203991
S          -5.47371834787460  -18.07655713307281    1.44434869059758
N          -4.97059540656912  -18.89437183850317    0.16566356565178
C          -4.09041259320926  -19.75964058155146   -2.53972204326985
C          -3.03780135695412  -19.97270762440071   -3.43292714740155
C          -2.65559992605528  -21.25046821726109   -3.77468964679834
C          -3.29750160089729  -22.36221879707941   -3.22637684931898
C          -4.34386895393598  -22.14976094882364   -2.32688650851493
C          -4.73018360643573  -20.87254237794579   -1.98666057039598
C          -2.90427352395338  -23.71216128567210   -3.64431875300234
C          -2.65482311265559  -23.86908054048495   -5.08682979105471
C          -3.52929871670551  -23.30052303841745   -6.01194417623312
C          -3.30120859403457  -23.43614674050471   -7.36810252766091
C          -2.18992824601534  -24.12756156562003   -7.82168320620174
C          -1.30381183624621  -24.67824626139988   -6.91024293693185
C          -1.53197328063933  -24.55050510679593   -5.55348147413802
C          -2.76508682487559  -24.74495649513486   -2.77725957707286
C          -2.79410694930008  -24.57934758147543   -1.31580629438403
C          -3.45679196588124  -25.51975963388054   -0.52619226705132
C          -3.48020165472273  -25.38547780544310    0.84922084844550
C          -2.83635635782324  -24.32045628440318    1.45738689019191
C          -2.15916476846700  -23.39292724451594    0.68213767564478
C          -2.13399070185873  -23.52083517846369   -0.69321035511993
C          -2.57368916251241  -26.12485135798366   -3.23497013268374
C          -1.62141642884940  -26.94073141135061   -2.61782623144119
C          -1.48561403636220  -28.25973913627246   -2.97870796634579
C          -2.30050794188152  -28.81503747153345   -3.97400030673218
C          -3.21796059939650  -27.98242485228886   -4.62606514620433
C          -3.36553206157037  -26.66850616228754   -4.24894929059206
C          -2.19297518389923  -30.19521777349948   -4.35904714010348
C          -1.83448197689303  -31.25805592227530   -3.59821982041890
C          -1.40718032951355  -32.52252347438124   -4.26016969426345
O          -1.55097451616295  -32.81546624730079   -5.42391185371569
C          -0.72318557506850  -33.29936086551021   -3.20630143439313
C          -0.03156699472593  -34.47083911106759   -3.31852620559881
C           0.58015622822835  -35.01988961936953   -2.16964886477059
C           0.46531393560601  -34.33808183404344   -0.92325263209719
C           1.08599418795149  -34.88674496622072    0.21720709487654
C           1.78512830276605  -36.05713219880477    0.12497034212747
C           1.89707874054840  -36.73097410315596   -1.10799991408318
C           1.30724294222489  -36.22469948698700   -2.23194722669000
F           2.59072886963361  -37.87563901975846   -1.16895286126327
F           2.37421880090666  -36.57682132806421    1.20995299701366
C          -0.26358971552036  -33.13022171740892   -0.83623486628231
C          -0.85549433364350  -32.62048442632208   -1.96135261736847
C          -1.67382151040806  -31.42727711468664   -2.16573905511544
C          -2.34891346158147  -30.75856589083806   -1.18019216261330
C          -3.31851679236437  -29.75856316253189   -1.40466234662418
N          -4.15831883280187  -28.98222290851803   -1.50209024203273
C          -2.21289733631201  -31.04877529506726    0.19346295492291
N          -2.12376102672242  -31.23584283737360    1.32241019202344
H         -12.57856452251598    2.48962225229947    0.53362456968257
H         -15.92073220877181   -1.17029720857421    0.45607093517073
H         -10.76475739535585    0.86412411928568    0.59576938919136
H         -14.07970888491290   -2.85929433020244    0.50215920073261
H          -7.91023261935761   -3.63195461387452    0.04052127390282
H          -6.82972965314225   -5.33864902724917   -0.88195520742128
H          -6.42033407260513   -7.73332185514646   -1.12377544831495
H         -10.11299137756462   -8.56323108743657    0.86403305926903
H         -10.54304950968119   -6.17391085432494    1.09171029041237
H          -8.80056327668030  -12.11719018896253    0.78521495883896
H         -10.77019277665635  -13.43800331593385    0.14219668405568
H         -12.26803199813947  -12.63929416791811   -1.64977548812913
H         -11.78968352067363  -10.50081058476712   -2.78533131278200
H          -9.81520120183015   -9.18030904086408   -2.14800449513274
H          -6.89038166087993   -8.71957053092289    2.13123682104102
H          -5.04850777685366   -7.45515512081487    3.15641125819290
H          -2.77559350786429   -7.58638608157046    2.20521710101134
H          -2.35158532442253   -9.00634532414822    0.23144622472212
H          -4.19637566234573  -10.26579326131209   -0.80214791084172
H          -7.41644379382303  -11.64245669804855   -2.31122056954145
H          -6.80902858516948  -13.93087996330994   -2.92004349128135
H          -4.77936531973496  -14.38948532568771    0.81250466945745
H          -5.38982766081791  -12.09519386410516    1.42312372350269
H          -2.51120857951974  -19.12858466399260   -3.84719794809423
H          -1.83669392123984  -21.39945749679899   -4.46381726998992
H          -4.86747929926896  -22.99789307970003   -1.91170058149532
H          -5.55154393676115  -20.72534753002165   -1.30366296234759
H          -4.39762961025878  -22.76256139082622   -5.65928979235597
H          -3.99105460712095  -22.99807710073783   -8.07414992653558
H          -2.01072421972828  -24.23042053965436   -8.88146065441637
H          -0.42784383276860  -25.20555047514547   -7.25868016941854
H          -0.82888419160827  -24.96527866058018   -4.84580022270950
H          -3.96138881577987  -26.35294096686036   -0.99441176960994
H          -4.00135928049457  -26.11800989174124    1.44756196385348
H          -2.85512000620592  -24.21754331980104    2.53222660479734
H          -1.64329513625866  -22.56846490677411    1.15205311228796
H          -1.58800448428267  -22.80645021621952   -1.29171272074013
H          -0.98524608377961  -26.52269808964542   -1.85095518667351
H          -0.72274797570061  -28.86838233160986   -2.51400712586807
H          -3.84830856963864  -28.39747031318388   -5.39835476796413
H          -4.11158846699561  -26.05199344128242   -4.72664065132101
H          -2.37000541086003  -30.41859996092233   -5.40695552248587
H           0.04976975771649  -34.97069294089670   -4.27169896153446
H           1.00711314251484  -34.38584651568389    1.16942168600595
H           1.40218685621786  -36.75203438602561   -3.16822117512558
H          -0.32640783432878  -32.63075619000006    0.11743952551548
