88
 SCF done       -192.910821490522          0.000676637928
C         -12.21978561196060   -5.13019004373389   -6.98869963199858
C         -13.41721635231880   -4.50661834645887   -6.77484731785265
F         -14.19181523573706   -4.16225004651059   -7.81199590429392
C         -13.85184989809192   -4.21856775525301   -5.46586997195492
F         -15.03067025484036   -3.60759354205695   -5.28496439258623
C         -13.08226213798192   -4.55744018803498   -4.38819727638438
C         -11.84361331828300   -5.20011901529214   -4.57602402948440
C         -11.40274802881489   -5.49207176092105   -5.89913977235675
C         -10.16234161593895   -6.13744649983409   -6.11210079832992
C          -9.38730124019214   -6.47698477190034   -5.03506626471173
C          -9.83759324582672   -6.18422521688988   -3.71738285251739
C         -11.03054283213860   -5.56610616639323   -3.47992442690249
C          -8.84896953317872   -6.68167728757900   -2.74440430285696
O          -8.96588333055364   -6.68890889550284   -1.53130236845610
C          -7.75985096569104   -7.27239897748927   -3.53704065271368
C          -8.08563472664340   -7.13406631664198   -4.94336505596638
C          -7.29046360062389   -7.47608765471445   -6.00566767422014
C          -5.99658453827413   -8.03032071141298   -5.90714568044765
N          -4.93301772887047   -8.46306728213014   -5.90690790609334
C          -7.65494791637656   -7.28885359828296   -7.35583548785944
N          -7.89675684726776   -7.16211885944848   -8.47066287188855
C          -6.70444046345184   -7.98339301865864   -3.02190934143111
C          -6.23602896614358   -8.00086145686088   -1.69820205944215
C          -6.30941745113719   -7.09556901833403   -0.64337613415726
C          -5.59255047466289   -7.48417760176103    0.52013991588967
C          -5.65047825511875   -6.46578508304463    1.51163109451687
C          -6.33703329238554   -5.35764035149387    1.12607449196663
S          -6.99890110063335   -5.52796398313461   -0.48642579433225
C          -6.57217465931976   -4.12358926207906    1.91561706409525
F          -5.06070486939609   -6.54955994647250    2.70954526070103
C          -4.98328862807251   -8.73164269227002    0.38328666856624
S          -5.23897802835749   -9.36229435288160   -1.20934599675316
C          -4.28193936023674   -9.47292257195785    1.35768724335817
N          -4.14151412697581   -9.10478046339778    2.59751951326744
C          -3.47768319409289  -10.01421711470527    3.29541914154358
C          -3.06417793232320  -11.16948431654730    2.59327062234744
S          -3.55277591428571  -11.05931486635232    0.95452123597273
N          -2.42655094983820  -12.09368993521847    3.30210029833104
C          -2.31229887444406  -11.72006367040579    4.54878477516660
S          -3.00877444368920  -10.13195348475782    4.94188454908770
C          -1.70599564644825  -12.54393998029212    5.51909335321484
C          -1.16996832954448  -13.79845031888767    5.28447545139911
C          -0.63429481111580  -14.43251921389231    6.43139959572272
C          -0.20188191241956  -15.74383034272365    6.09330418377580
C          -0.33672799572509  -16.06186418038018    4.77680894776342
S          -1.04697653098202  -14.75287221920088    3.85563508019548
C           0.04769259578404  -17.33570694838043    4.12189724883513
F           0.24298266071518  -16.63932828355056    6.99688990891271
C          -0.72560641260843  -13.63412218038374    7.57448316248231
S          -1.55921062867563  -12.14357931833995    7.19665846446998
C          -0.28781236224109  -13.84913852030306    8.89735899204130
C           0.72675914705400  -14.63761699699325    9.35373666705750
C           0.73400003594307  -15.04229271176987   10.78845746202794
O           0.05184686895451  -14.57974247177386   11.67226320097642
C           1.70330608786479  -16.15243586065400   10.86921739280630
C           1.99045644420112  -16.96367825553061   11.92858340587542
C           2.93708155372616  -17.99957179022756   11.76267162926789
C           3.56618690731897  -18.17579708761613   10.49592229711883
C           4.50113465792374  -19.21794138047257   10.33506165403438
C           4.79963129583846  -20.04384789752755   11.38228153817267
C           4.17858134596675  -19.86714570718330   12.63497130204633
C           3.26664529650083  -18.86651772061601   12.82263266705639
F           4.48985103149987  -20.69221492664189   13.64366635302865
F           5.68871010717028  -21.03362069250198   11.22677024171294
C           3.25537976250851  -17.31329211117868    9.41947106622350
C           2.34046941329703  -16.31254107265063    9.60548704070442
C           1.84334731050975  -15.27968626185794    8.70016201133729
C           2.47045378188142  -14.86277435018214    7.55389724698369
C           2.10412680922804  -13.71260522522448    6.83024123689314
N           1.86237441435227  -12.76994524179636    6.22040384509495
C           3.58830500828816  -15.51125590993311    6.99122260552046
N           4.48076977559511  -16.01274154064853    6.47214582690160
H         -11.90195059165716   -5.34312310625395   -7.99741082677590
H         -13.42962557396784   -4.33098266965194   -3.39232249006995
H          -9.86130047158730   -6.35105134468524   -7.12484511635530
H         -11.34927630372240   -5.35883171357861   -2.46980449508032
H          -6.16558494630391   -8.64225073989219   -3.69149065569307
H          -6.06309664953057   -4.19644166432158    2.87377523537580
H          -7.63838277127362   -3.98186915981802    2.08937953752634
H          -6.20253677739663   -3.25102403825620    1.37851006738455
H           0.32604407283080  -18.07189460364543    4.87255643517674
H           0.89570343863976  -17.17553956371346    3.45597767149954
H          -0.77682774477419  -17.72108820972625    3.52483052283067
H          -0.85887236172837  -13.34625677884115    9.67246820096672
H           1.49968078245651  -16.82043492535887   12.87917015016125
H           4.98809135986919  -19.36554785625272    9.38380119952398
H           2.79934845202898  -18.74472263480794   13.78726355937934
H           3.73827836578013  -17.47449815789459    8.46904199255697
