97
 SCF done       -207.875849653805          0.000856311039
C         -11.98021049028768    1.27364362139863   -0.78582155482192
C         -13.13250019059192    1.31029525628783   -1.52027144257842
F         -13.84613403038785    2.44121773916823   -1.59757004111130
C         -13.58446099643871    0.16376324405079   -2.20358859839017
F         -14.71735115595058    0.22795109475921   -2.91635990359954
C         -12.87728201818243   -1.00439246344774   -2.14284039459200
C         -11.68625125237959   -1.07342719995611   -1.39472452664769
C         -11.22773014931490    0.08495785684863   -0.70337251845239
C         -10.03419025865844    0.03972324138796    0.05438833539537
C          -9.32117497255468   -1.12796092785817    0.11947625973833
C          -9.78951666848935   -2.27936598606745   -0.57303210962155
C         -10.93582466377649   -2.26746417588293   -1.31337824849621
C          -8.85849409109406   -3.39572119820595   -0.33528622125648
O          -8.95466782715864   -4.52193335772794   -0.79281169367701
C          -7.81382596691726   -2.87636966859298    0.55066373993275
C          -8.07827662352583   -1.47476476444475    0.80851406621659
C          -7.31601075789291   -0.60201786541192    1.54192287608777
C          -6.09950080124296   -0.90247188298682    2.19077644125597
N          -5.10351546792020   -1.05091509137819    2.74333880865034
C          -7.64643118383518    0.75545750666954    1.74013454869431
N          -7.85773492362834    1.86587583939387    1.94007290846162
C          -6.77422106948491   -3.60614609782484    1.07531716879124
C          -6.43703970820965   -4.95170935348077    0.90086797952591
C          -5.32519759313391   -5.54079069221536    1.54360184465311
C          -5.18524064111936   -6.90494367260997    1.25483390178960
S          -3.85063650708253   -7.93783430046958    1.75014823828045
C          -3.37838301451589   -7.08827882461940    3.29003779949201
C          -2.94232406801987   -5.67106293830381    3.00520060248384
S          -4.34356666401106   -4.57092467022643    2.61151665951459
C          -6.17297884536578   -7.35816296762527    0.39062047893893
S          -7.26114056001202   -6.10989462807531   -0.10921789524290
C          -6.42616317360210   -8.69926315627709   -0.05217178210058
C          -6.36063061446095   -9.81311706728244    0.80646535093744
C          -6.67162511956444  -11.14203477761587    0.35034447613709
N          -6.57186221339333  -12.17512036932267    1.20050593621309
C          -6.22453613658778  -11.96276554301381    2.44251532230753
C          -6.00313772710000  -10.62494629264882    2.91621141691667
N          -6.08121611884747   -9.60365595832293    2.10501100462520
C          -5.68288270945420  -10.37615160772798    4.27471886672638
N          -5.39721918266935  -10.17356347657631    5.36514602487146
C          -6.09147527713077  -13.05981093188390    3.32988808405823
N          -5.97583804842735  -13.91416101656953    4.08356649015472
C          -7.08563895071444  -11.41105058267226   -0.97552066758035
C          -7.23351650768084  -10.28437714804378   -1.80770044828733
C          -6.90273431669627   -8.95406994068586   -1.34870654969149
N          -7.14128936998080   -8.03302160054777   -2.28577786390664
S          -7.75390644128164   -8.74760259475400   -3.57517772870165
N          -7.73991608374579  -10.25759717298347   -3.04377538113490
C          -7.43660112399910  -12.74357182151093   -1.36206164226195
C          -7.34118641926356  -13.36232560012944   -2.60428444947232
C          -7.90240308818674  -14.65880157307766   -2.61080926157926
S          -8.17453296428341  -15.63756706802537   -4.03438042670631
C          -6.81957524361907  -15.06583424319871   -5.10981910816984
C          -6.90276469800787  -13.57850291980713   -5.34790757562664
S          -6.39371928161285  -12.62626962254187   -3.87765430912739
C          -8.40750643912945  -15.04257945810694   -1.36708107774229
S          -8.16332344084801  -13.78533089695811   -0.18689934712600
C          -9.08286426798801  -16.19502298326035   -0.91171368883534
C          -9.17706863019808  -17.48461178455237   -1.35182636536229
C         -10.31080288712713  -18.30375476989927   -0.82634461282336
O         -11.05535133424704  -18.00714150986419    0.07772817833519
C         -10.34948800683525  -19.50876741770184   -1.67716463809700
C         -11.26293101745791  -20.52227367893570   -1.68796801455645
C         -11.11283514783941  -21.57113880718703   -2.62343093889858
C         -10.01345058089451  -21.54666575495199   -3.52980076158110
C          -9.87466606528923  -22.59136487430100   -4.46520182871866
C         -10.78311905214763  -23.61214940776116   -4.49854859858504
C         -11.86892401656895  -23.63575505827446   -3.60089182337767
C         -12.03109098665922  -22.63718952109329   -2.68159214597868
F         -12.74523673677322  -24.64791045351018   -3.65744523993887
F         -10.64920008261567  -24.60305060546089   -5.39013184233263
C          -9.07676338331403  -20.48772918762496   -3.48648335213459
C          -9.24211126698148  -19.48329554686061   -2.57150620844596
C          -8.44395154802213  -18.29295432210451   -2.28809311280640
C          -7.15305531637941  -18.08376410094163   -2.70707685568226
C          -6.32377648624392  -17.06447656137560   -2.20218213483057
N          -5.60997437874526  -16.25052821895672   -1.81857814654024
C          -6.48080033016294  -18.89920172953639   -3.63887363355306
N          -5.89158666848106  -19.49723527602930   -4.42177192066883
H         -11.64879166639083    2.16078364639203   -0.26906086562971
H         -13.23656977061755   -1.87376053327348   -2.67094107892773
H          -9.71826920472567    0.93395525489134    0.56619104139278
H         -11.26607462448146   -3.15706491296255   -1.82778851492651
H          -6.10410611065381   -3.07948241661316    1.74522152231484
H          -2.55171551597293   -7.67211805927421    3.69408034029624
H          -4.22154470638742   -7.13016512900745    3.97976770267202
H          -2.23689020445666   -5.63656914015669    2.17438691145144
H          -2.48784363745698   -5.21378137435322    3.88468231808600
H          -6.94799053194312  -15.62310171824343   -6.03785347130707
H          -5.87610533673300  -15.34686894975842   -4.63983722992884
H          -7.91131595728774  -13.27262801555529   -5.62727470157379
H          -6.20188923969286  -13.27023258973504   -6.12388327174941
H          -9.69422265844200  -16.01014861616853   -0.02983836283296
H         -12.09027916689328  -20.52370117354588   -0.99480729901923
H          -9.04790636267069  -22.59084911926063   -5.15827698999961
H         -12.86756571161184  -22.66922014826042   -2.00116359708965
H          -8.25710755083771  -20.49304566676747   -4.18716963186760
