99
 SCF done       -212.601174840635          0.000758121618
C           0.19860041004777   -7.89856469883671   10.06895791928307
C           0.29844919983292   -9.03099348810149   10.82778119446130
F           0.89780200184827   -8.98798797668698   12.02562895146268
C          -0.22541114101713  -10.25395854930042   10.36391035765423
F          -0.11446875739300  -11.34812117903871   11.13011995524545
C          -0.84085413740248  -10.32795850805236    9.14575301275545
C          -0.95832943313676   -9.17873364661784    8.34037142646818
C          -0.43095250550743   -7.94076341814816    8.80886967706562
C          -0.54182981290879   -6.77182740173273    8.02002124311492
C          -1.16125401154552   -6.83924123132613    6.80035718357236
C          -1.68174489807816   -8.08141930136032    6.34105341117320
C          -1.59024122434169   -9.22630741313369    7.07756454199491
C          -2.29769149696010   -7.88449360873912    5.01604024799656
O          -2.79393152483713   -8.75065325820527    4.31794071126378
C          -2.18350028167603   -6.45314110843759    4.72291466726541
C          -1.43314382984880   -5.81980953151377    5.78694573020152
C          -1.01018614471309   -4.51629097837566    5.84495320086565
C          -0.26400341932674   -3.97814296045817    6.91402021059259
N           0.34117098654110   -3.47852933158814    7.75229376918007
C          -1.22614046615556   -3.53384146793930    4.85567331981976
N          -1.33902761682763   -2.67404907629469    4.10224959070308
C          -2.76593940998565   -5.81575700172025    3.65388142212253
C          -3.51693549263758   -6.34689798721059    2.60159245839370
C          -4.13316427054667   -5.50236270463848    1.64622652469960
O          -3.97456046577422   -4.17989513121367    1.78731937901493
C          -4.44062982710162   -3.29577869685943    0.78588708488979
C          -4.83687006923027   -6.21192928364705    0.65815080839493
O          -5.57138528981011   -5.58579835775178   -0.31568134297099
C          -6.94922004488517   -5.90013568661234   -0.34254819719724
C          -4.72795925122282   -7.59289256908515    0.83328851241988
S          -3.85835065467132   -8.01966345841177    2.26786858428580
C          -5.18011184575258   -8.64001772314091   -0.03179904472494
C          -5.47424991356119   -9.92350278985675    0.47200112984440
C          -5.83299411056922  -11.01268512239358   -0.38700640829762
N          -6.00909845075310  -12.23548705326491    0.15231825865484
C          -5.88976485891627  -12.40745443311953    1.42688420044114
C          -5.62003322480867  -11.30538030764890    2.28539950972252
N          -5.42623662643510  -10.12299102741475    1.80575805328732
F          -5.58545656119323  -11.46527346087949    3.60146970522050
F          -6.03702449403206  -13.64141032442182    1.90220345322626
C          -6.00385434955841  -10.86789693493404   -1.78368714597986
C          -5.64202400776110   -9.60481587016177   -2.30226908560383
C          -5.22947746238856   -8.51576912938655   -1.43735315702533
N          -4.84000610726116   -7.45153996933170   -2.14046279863902
S          -4.97883167508578   -7.77394550273771   -3.70139147989429
N          -5.52731882519063   -9.27280640020413   -3.58785925730082
C          -6.45759076677234  -11.97470715560605   -2.55864517304240
C          -7.10149296106963  -11.98879333791842   -3.79727440956785
O          -7.41453573539301  -10.82333710839499   -4.37837108482411
C          -8.13502070248502  -10.78037523198728   -5.59256091453456
C          -7.40349785917506  -13.30997747957807   -4.24856901012999
O          -8.07389257857945  -13.47237948241427   -5.41098302099520
C          -8.58814265083342  -14.73664530447697   -5.76643330569107
C          -7.01487938381784  -14.28709096314336   -3.34225263394111
S          -6.31488308860256  -13.56780851279341   -1.90866840089453
C          -7.06886042942361  -15.70762241440137   -3.37694275850691
C          -7.14700157698376  -16.51027369587242   -2.27882914808364
C          -6.65947960661506  -17.91379576661967   -2.32898975337679
O          -6.44328859164992  -18.57368251010408   -3.31935272939380
C          -6.43320092722362  -18.28533640574706   -0.91515765219966
C          -5.83445890074743  -19.39961203852820   -0.40177673146011
C          -5.66390862869195  -19.50429691868094    0.99767712528103
C          -6.11447248026222  -18.44747898060859    1.84213653539658
C          -5.91810511126613  -18.55045433457515    3.23391114115367
C          -5.30781325354489  -19.65232756632814    3.76396992649179
C          -4.86770812925000  -20.69905516567160    2.92926348968198
C          -5.04159661834008  -20.62815207260268    1.57546813011428
F          -4.27192461117751  -21.76821041615982    3.47574637864834
F          -5.12038665575624  -19.74845184936496    5.08705845475650
C          -6.74709146503649  -17.31275081605970    1.28531636605662
C          -6.90782151047116  -17.23946896353889   -0.07159363980736
C          -7.51113484901286  -16.21069829707196   -0.90762910499495
C          -8.44541670603546  -15.29544411148537   -0.50268201265736
C          -9.15647252846353  -14.49356839227725   -1.41779021168401
N          -9.77040774905364  -13.87376690597300   -2.16461240211267
C          -8.83683820825126  -15.10109263940427    0.83630132942223
N          -9.18783561097627  -14.89302859991265    1.90898293638557
H           0.60521514040433   -6.97059389286783   10.43971822717506
H          -1.23761060726383  -11.27114056393475    8.80418423359648
H          -0.13659566044148   -5.85111003212004    8.40713219157698
H          -1.99814961386132  -10.15289422210605    6.70345656369100
H          -2.66649680550547   -4.73828278293836    3.59730899212414
H          -5.53006775952800   -3.21746831203554    0.80265355407334
H          -4.11766017712048   -3.61318096219129   -0.20646525093047
H          -4.00074150869386   -2.33103703589284    1.03478412196061
H          -7.36566031764693   -5.32403264446538   -1.16667916405789
H          -7.43577373250469   -5.60514379483538    0.59423087585640
H          -7.13111609772370   -6.96405820220137   -0.51380601028746
H          -7.59999838294540  -11.28833945980660   -6.39652616464139
H          -8.22406943132332   -9.72005606768799   -5.82553778177360
H          -9.12930728242183  -11.21794468601335   -5.48302790782855
H          -9.35016067636458  -14.53806615229209   -6.51986310642670
H          -9.04249983287544  -15.23631135840222   -4.90728595541468
H          -7.81384264090969  -15.37232142114164   -6.20267958867191
H          -6.88756598205945  -16.21889546309202   -4.31444406275941
H          -5.48634598132299  -20.18748526346553   -1.05232990683394
H          -6.25078145619539  -17.75763163104823    3.88537403630327
H          -4.69637715449320  -21.43731222955311    0.95105481256000
H          -7.06733878129042  -16.51568534707850    1.93746808666202
