99
 SCF done       -204.144784624170          0.000423117684
C          -6.04550148724272   -7.27044884486879   12.01725580329606
C          -6.69498011649802   -8.21930593153486   12.75635096321511
F          -6.91345440886947   -8.02158245550069   14.06330555734966
C          -7.14191809949053   -9.41360469458095   12.15703349695845
F          -7.77589392176938  -10.32653634518011   12.90555398238651
C          -6.93297024146539   -9.64267391513618   10.82574514901914
C          -6.26678287338184   -8.68434672248284   10.03803751448190
C          -5.81406448200195   -7.47632423864358   10.64255501315251
C          -5.14137298272649   -6.49944771623219    9.87175748993914
C          -4.92866155094247   -6.72375745719007    8.53737848260466
C          -5.38781774499505   -7.93155407408797    7.94342682958320
C          -6.03772215243367   -8.89375736803013    8.65968250164828
C          -5.04383364582427   -7.92565654797906    6.50932768801910
O          -5.26982790919963   -8.82343499885094    5.71795928823650
C          -4.38157439796296   -6.64229955936830    6.25321778215763
C          -4.27567254150239   -5.91988848155455    7.50436405727212
C          -3.65651847885314   -4.71515593464816    7.72873156509273
C          -2.98079791724901   -3.93680243088350    6.76892109758210
N          -2.39852851096572   -3.24215868202145    6.06159982785339
C          -3.58714970753313   -4.08524081971296    8.98922468426796
N          -3.49190708040763   -3.51720034863276    9.98249325206470
C          -3.96081537880499   -6.18072282934148    5.02700678603643
C          -4.05512124563975   -6.76821681929083    3.75978853020052
C          -3.65959859401890   -6.08929650991281    2.58257474251627
O          -3.08616234032582   -4.85273380957919    2.58668850427394
C          -1.80543476305267   -4.71875071308332    3.20010397345675
C          -3.97808685711317   -6.78737820174813    1.40782894534620
O          -3.88063140154827   -6.37587698849710    0.13322038477688
C          -3.15262246399858   -5.20485240993261   -0.17366810437373
C          -4.56147075367896   -8.03651200866219    1.68632450055690
S          -4.80175575226579   -8.29571885372981    3.37797725482933
C          -4.93267151706452   -9.05815611432855    0.76724338263767
C          -5.88466353953960  -10.03210692868727    1.16464150317146
C          -6.28669685041370  -11.10758293552291    0.31394583729789
N          -7.16100916486463  -12.02199148765544    0.77239948330642
C          -7.62141087209889  -11.92304717742934    1.98584814192747
C          -7.24733918532842  -10.84147533642195    2.81410304986916
N          -6.41873104384924   -9.93177443709762    2.39306512043981
C          -5.79084737319405  -11.25397968823608   -1.00383496523883
C          -4.79078279683474  -10.33536431986426   -1.38039451420308
C          -4.35724291312873   -9.26093970975771   -0.50540150365592
N          -3.32144786169984   -8.60192568136117   -1.02751720459895
S          -2.95081638672428   -9.23427900515797   -2.44897790896468
N          -4.05619025174332  -10.38916187581700   -2.49321104263625
C          -6.23121901522083  -12.34859453630585   -1.80808469171632
C          -6.24371832271084  -12.50513451203626   -3.19440438436448
O          -5.92971283946976  -11.52612256305842   -4.09647676670021
C          -6.75578477168966  -10.37699626791368   -4.05839126597050
C          -6.67044245998643  -13.79421422444625   -3.59274714927780
O          -6.77172171138074  -14.31061221253693   -4.82415406633352
C          -6.44957104103026  -13.52398824716006   -5.95480330863631
C          -7.04240303001395  -14.59944685923849   -2.50665369741865
S          -6.85597612804200  -13.74183725577381   -1.00284069413526
C          -7.47383076652040  -15.93370225998711   -2.58687250030404
C          -8.07301701409806  -16.67572536103317   -1.60579573884801
C          -7.96383981307263  -18.15356805175137   -1.60702040756426
O          -7.63677908389604  -18.86798819241397   -2.52708965183048
C          -8.26846117273363  -18.55829415249990   -0.21376417338997
C          -8.17959119266274  -19.79223250980742    0.36139159047692
C          -8.47723701009193  -19.93346238383959    1.73646402989315
C          -8.86555844393621  -18.78820814854131    2.49025065072664
C          -9.14823790812196  -18.93478152528015    3.86304372033631
C          -9.05184161343688  -20.16030764886235    4.45975373697955
C          -8.67032399051328  -21.29246835229820    3.71342357676762
C          -8.38982833464712  -21.18303130183505    2.38015794490352
F          -8.58231457553161  -22.48267386522978    4.32483348569752
F          -9.31928398973286  -20.29586677269878    5.76659493476514
C          -8.96398000418164  -17.52467889237359    1.86364774762517
C          -8.66989388039966  -17.41294404707265    0.53195568609893
C          -8.70359345446817  -16.26771612256216   -0.37217625098606
C          -9.42910537986542  -15.11951421004702   -0.17473682096930
C          -9.70523302810265  -14.20078913873884   -1.20878189985200
N         -10.00446230571054  -13.46952429695066   -2.04192458383696
C          -9.99007259595119  -14.74750842320113    1.05842439207947
N         -10.41201492007312  -14.36792804687490    2.05780973566966
H          -5.70957015058358   -6.36199407388496   12.49237689555554
H          -7.28126526283680  -10.56197528802245   10.38154914598912
H          -4.81451868769462   -5.59694993242203   10.36172708506225
H          -6.37270623153860   -9.80146484996270    8.18138673680126
H          -3.52155290775477   -5.19142173582715    5.01837299562700
H          -1.07408361471417   -4.49389146182695    2.41824115663108
H          -1.50653458743720   -5.63137065907452    3.71727199372223
H          -1.83884319272403   -3.88953676681750    3.90868987289313
H          -2.10035982070359   -5.31008233693217    0.10217812806026
H          -3.57287184769433   -4.32715655996034    0.32104306298389
H          -3.23175959315988   -5.09674796223043   -1.25428820081651
H          -8.32533035873136  -12.67717096543645    2.30899296273912
H          -7.64888519426123  -10.71279577980751    3.80822911591410
H          -6.69517803335797   -9.85403924361953   -3.10111888934099
H          -7.80139064760313  -10.64226371140004   -4.24935917633432
H          -6.38990768992841   -9.72708475642581   -4.85078406844743
H          -7.17487305072633  -12.71936692459798   -6.09581332007761
H          -6.49934868413884  -14.20886817260554   -6.80021769113407
H          -5.44788900098831  -13.09873072915917   -5.87474493946832
H          -7.21160037041965  -16.46085036372214   -3.49822880081843
H          -7.88220413941856  -20.65050715667973   -0.22165753039644
H          -9.44465012820347  -18.07830727570483    4.44821391464401
H          -8.09835067427811  -22.05974452228976    1.82328596864317
H          -9.25604677490848  -16.67118698227144    2.45477347678148
