149
 SCF done       -329.248315728870          0.000953161507
C           1.57590745932692    0.86939912611330    0.75405298078041
C           1.93749367182619    1.12821507234839    2.14130570173503
C           3.24389145258350    0.98053855401725    2.61853006111340
C           3.56537929414525    1.21953293982160    3.94790967119673
C           2.57790464264865    1.63104408503564    4.83866313090252
C           1.27802502770247    1.82584545055135    4.38103813266100
C           0.97723442788935    1.58376611241183    3.04679721439776
F          -0.27684944833519    1.76354140712985    2.62055454172828
F           0.32908227229946    2.23576749740167    5.22455216035463
F           2.87815529361110    1.84257637616803    6.12017171046731
F           4.81850645185456    1.05098175233070    4.37677914717161
F           4.22019002258418    0.62480908809972    1.77909718930226
C           1.92905640642308   -0.22218034224040    0.04301994060368
C           1.59294666307098   -0.28787264903526   -1.39559031699483
C           1.88309217339800    0.77399973762678   -2.25297678347419
C           1.61338976581723    0.71226644578521   -3.61615411367268
C           1.03304343152358   -0.43188786282516   -4.15550979592323
C           0.72267945472901   -1.50029194701535   -3.31930278631689
C           1.00090129106872   -1.41927584149482   -1.95949517845786
F           0.66181891010696   -2.45242165766362   -1.18499071741536
F           0.16060930594875   -2.59939989877250   -3.82331519800002
F           0.77496456733528   -0.50364997457235   -5.45934076913192
F           1.91314591178450    1.74276138319467   -4.40663556292544
F           2.45796230365108    1.87793679083024   -1.76998678915790
C           2.58994349679259   -1.39298582395686    0.57612043287841
C           3.37342233133084   -2.26387349889285   -0.12396159401023
C           3.85805343136042   -3.34616689024465    0.64884614491513
C           3.44500151033036   -3.25256960134868    2.00060838910519
S           2.39334234842565   -1.88282683257101    2.24679598754713
C           3.81820008904605   -4.15831638658435    2.97739902171569
C           3.37465450176025   -4.01526095895526    4.36886810592711
C           2.77967053569308   -5.07319504370992    5.04990853799969
C           2.35755463716311   -4.91435658225780    6.35588773740440
C           2.51922860968680   -3.70433915616062    7.01928846255170
C           3.11790563102603   -2.65066089517610    6.33710750254091
C           3.53827054061521   -2.80018831436980    5.03125637680570
C           2.04463884130051   -3.52465999072366    8.42766342338920
C           4.65701743860140   -5.20992452087103    2.55923461257998
C           5.06401924511203   -5.31516964882258    1.20258520105226
C           4.66522159615029   -4.41693099551995    0.22544049433263
C           5.01046818444956   -4.59112696894187   -1.19018033387932
C           4.01029769342223   -4.54656471888073   -2.15878395611557
C           4.31644160550672   -4.73227667929363   -3.49327716918340
C           5.62426812401395   -4.96521926121428   -3.89882851466194
C           6.61996126363728   -5.00992036727461   -2.92840790782644
C           6.32172547598522   -4.82934426011766   -1.59304602108150
C           5.96359769166716   -5.18261448168643   -5.34064926353552
S           6.09282135148860   -6.70360096192795    0.95189656263087
C           5.97296560655438   -7.13153142729610    2.64110976426610
C           5.19611087565131   -6.24588861335535    3.34812957027312
C           6.63703293681301   -8.28054287683828    3.16738815670839
C           7.53080999266569   -9.04571102034493    2.38901939978923
C           8.24691336344279  -10.18468411058057    2.89925162422432
N           9.10033869534802  -10.83466812002374    2.07708559064385
C           9.25179094597769  -10.43230059518683    0.85960428616521
C           8.53644261810822   -9.31712008575667    0.35279554385287
N           7.71620534407159   -8.66567014885682    1.10781196252535
F           8.68982268472232   -8.91159330631622   -0.90498110310078
F          10.11086985552596  -11.10379299822254    0.09196080539618
C           8.07149410683442  -10.63528905356582    4.22671246366319
C           7.14530882835558   -9.89520058983777    4.99298694814133
C           6.44759019792069   -8.73540079934858    4.49018529049558
N           5.63816095017400   -8.21492720910186    5.41630094262075
S           5.74233175691121   -9.08135471779195    6.76189783509501
N           6.81278841606337  -10.16067672247948    6.25671466759079
C           8.75691939663332  -11.74940009144964    4.80289019091473
C           9.76355450005558  -12.50476378169981    4.25426158562269
C          10.23996427767220  -13.52348862016718    5.10409245141356
C           9.53665144075839  -13.55616406614081    6.33712946663336
S           8.34433489564656  -12.28540257355227    6.42011144742508
C           9.76953519024005  -14.51453575466242    7.30968862926820
C           8.97224233301976  -14.59977401419451    8.53875222611651
C           8.39128711160184  -15.81326629179261    8.90526486085752
C           7.62273523446761  -15.90527717831771   10.04747705909701
C           7.41236920619722  -14.79464285633716   10.85869313358237
C           7.98968611919308  -13.58733513611925   10.48803386268775
C           8.75646682444232  -13.48568130190188    9.34250988893896
C           6.56592086250259  -14.90871107880416   12.08856680426437
C          10.78431406202064  -15.44974760102552    7.03800316853594
C          11.47615279952092  -15.42194874767514    5.80204747213918
C          11.24251754443697  -14.47294166213445    4.82175037502818
C          12.00786550698743  -14.43786595799191    3.57169332864201
C          12.17587593713630  -15.58746519909568    2.80567835336396
C          12.90319315619083  -15.54731279182250    1.63113003835595
C          13.48782790932450  -14.36676201572422    1.19264105821312
C          13.32831365074613  -13.22188780986916    1.96761172713522
C          12.59941131443204  -13.25201254876747    3.13804321792989
C          14.27095895678954  -14.30981843624961   -0.08148371839521
S          12.67795198787650  -16.68451973098804    5.72222457934428
C          12.28553656216786  -17.20309958606550    7.34891305060932
C          11.27534677919191  -16.46482350044531    7.89288727426837
C          12.93316198915680  -18.34186378917564    7.96208967121606
C          12.09557188153146  -19.10886513080509    8.90867678989249
C          12.58892746644772  -19.49646303692748   10.15541074121287
C          11.80149531646293  -20.17630698402712   11.07866086192729
C          10.48243632312967  -20.49047056981566   10.76499175316692
C           9.97009137595571  -20.12632436272900    9.52330631486642
C          10.77364946873207  -19.44794411286691    8.61378075588903
F          10.25456488748119  -19.14460706425835    7.42174598770153
F           8.70928804811717  -20.42627468815875    9.20867541307139
F           9.71742019549781  -21.13410607357562   11.64393805788024
F          12.30453450760954  -20.52168002304924   12.26376429392455
F          13.84303798700526  -19.19109067325774   10.49698409743288
C          14.19057239959055  -18.75955196104379    7.70383299386845
C          15.17934628875061  -18.04220824388278    6.91249301322193
C          15.42816396981794  -16.67530625739949    7.07400041519769
C          16.39215165110775  -16.01557247909522    6.32337818272663
C          17.14783957520819  -16.71915599958661    5.38962404394680
C          16.94299406590534  -18.08697209160528    5.23082833695919
C          15.97685204813576  -18.72889513168436    5.99400411689217
F          15.78554825168988  -20.04181967996154    5.83040816463965
F          17.67248511342104  -18.77222500679519    4.34892846170073
F          18.06912839063747  -16.08975316287890    4.66134523126594
F          16.60084483858427  -14.70948190877261    6.49910178849977
F          14.75325299736881  -15.98265389991790    7.99570150197474
H           0.94811111603353    1.62097372564440    0.29679085451651
H           3.63918180551595   -2.11963734437293   -1.15652645427350
H           2.62744316923234   -6.01496691560703    4.54380290297556
H           1.89291372558383   -5.74459972640849    6.86851443625493
H           3.26012305580286   -1.70437573578375    6.83917112754556
H           4.02825110374502   -1.98007964007201    4.52703809409231
H           1.92239643584879   -4.48401258522281    8.92412442456855
H           1.08130704080826   -3.01393558060031    8.43243460781750
H           2.74513064860921   -2.91712815312837    8.99655706544089
H           2.98296188626739   -4.39878300164770   -1.85720946819817
H           3.52513692874254   -4.70389586475811   -4.22922006598223
H           7.64222096923752   -5.19189582763036   -3.22626321354233
H           7.11055146997649   -4.85411916449443   -0.85679859604994
H           5.10903560597755   -4.97825782835852   -5.97986218307593
H           6.27306458529493   -6.21473319274201   -5.49912418754279
H           6.78895131260086   -4.54052041492882   -5.64154264141167
H           5.03484839513570   -6.33989854994070    4.40562889767213
H          10.13334594779104  -12.33814047473103    3.26133113692731
H           8.52067421443388  -16.67818886093160    8.27028164388088
H           7.17176208850440  -16.85085492438824   10.31394890233649
H           7.83863784659201  -12.71297100382498   11.10461003251218
H           9.20808858382159  -12.54145251455700    9.07851343607743
H           6.87862709624250  -15.75847743378392   12.69269653264224
H           5.52360314302476  -15.06527932352093   11.81204041294198
H           6.62947303716722  -14.00708789798806   12.69164723003946
H          11.70922113099860  -16.51075517718369    3.11639432875456
H          13.01263311734164  -16.44789699560888    1.04414496910542
H          13.78419779874726  -12.29681654987239    1.64557439284175
H          12.50590937459480  -12.35976865133008    3.73953684432810
H          14.33433029539663  -15.29003183479561   -0.54640561391530
H          15.28012588957394  -13.94711684499301    0.10852159890170
H          13.79790816739844  -13.62216510255000   -0.78153403194242
H          10.91591078245416  -16.60714310392557    8.89696265222942
H          14.52091553521941  -19.71507325293949    8.08636785916586
