103
 SCF done       -273.047968392678          0.000481963183
C           3.58395197272151   -0.00457292514062    1.84758062825423
C           3.17119761872006    1.26365690772346    1.25856636328530
C           2.66256617705455    1.38906551597443   -0.03767740599015
C           2.26865193294385    2.61472674334532   -0.55576400248920
C           2.35505758584973    3.76437579944139    0.22596791586023
C           2.82852985986993    3.66605728319662    1.53164612899017
C           3.21821032261871    2.42897025360512    2.02981015147285
F           3.67778215191661    2.34910480779783    3.28293730422414
F           2.90028241222367    4.75094754889099    2.30016482889687
F           1.97137241994940    4.93775032746628   -0.26399422534289
F           1.80143358294270    2.68850182224066   -1.80322396029066
F           2.53328871149498    0.30200362009139   -0.80882738533032
C           4.33321639887831   -0.96395075411508    1.26105260809221
C           4.56666711135596   -2.23813109181742    1.97208744187771
C           3.51538712845759   -2.95594789082238    2.54267599471210
C           3.72638491197954   -4.16302010062142    3.20069242603991
C           5.01630357183752   -4.67571163788562    3.30942415943343
C           6.08333504125444   -3.97261069271183    2.75673598228233
C           5.85017920660120   -2.77125208268031    2.09740831818409
F           6.89491184084277   -2.10452748954919    1.59805160538325
F           7.32267785713454   -4.44956627560778    2.86215732729478
F           5.22820394358389   -5.82809241682971    3.93839241847469
F           2.69915713119926   -4.82907411376074    3.72509712309035
F           2.26765605838183   -2.49372718132766    2.44045033370790
C           4.97021097857696   -0.80835981290755   -0.02523933049789
C           5.41324249674557    0.36724755008148   -0.58859611676323
C           5.91698715750816    0.17596291630616   -1.87369865386925
C           5.89148682909599   -1.17017699812960   -2.27733481414435
S           5.21470254280338   -2.18594707310589   -1.08623874751424
C           6.45507707991662   -1.25714426805968   -3.57508691639883
C           6.83037736505456    0.03703225969105   -3.99156562635369
C           6.43291170594915    0.98641186524625   -2.96169413851229
C           6.37732789998684    2.34658993320415   -3.04481593606497
C           6.77613919931046    3.06922699422820   -4.19059777979450
N           7.06046471376677    3.67073098310687   -5.12311361150052
C           5.79286455055004    3.09316313826010   -1.99948179933392
N           5.26925409935787    3.65006146004892   -1.14395120429583
C           7.43414891700155    0.05807973758430   -5.24171837063592
C           7.50674673900022   -1.21482490832838   -5.79573199923772
S           6.81200631729741   -2.44469336095768   -4.74749869150264
C           8.07419585456337   -1.54286853107088   -7.04202790755647
C           8.85090227767975   -0.70032157582435   -7.85059067097248
C           9.28035480996380   -1.32902764643759   -9.07001604500744
N           9.97373934076295   -0.64873144173926   -9.98625642182655
C          10.29131938352424    0.59302112908186   -9.69860646149238
C          10.99691328093873    1.37214328529047  -10.75063011879406
O          11.18361184999975    0.93820091262824  -11.86558831176002
C          11.42116605938935    2.72312165782116  -10.34084392287961
C          11.16373593773762    3.25049599382832   -9.13954427204344
C          10.43746082939153    2.54027702151028   -8.07125045663641
O          10.26889176111426    3.01309561101408   -6.96930426820488
C           9.95488714108079    1.18274790866732   -8.43981047726911
N           9.22809600757479    0.54500373565697   -7.55063794514980
C           8.85019287270863   -2.65895710212319   -9.18355882480209
S           7.90745456700678   -3.09717051841872   -7.79461174699854
C           9.11910977781431   -3.53622838906675  -10.25175875193898
C          10.03374022072689   -3.31991563565907  -11.27603340187872
C          10.04874995250365   -4.37524709690582  -12.17836967694063
C           9.12902275961013   -5.39531973848813  -11.85807754889704
S           8.27400613618102   -5.06976428384128  -10.41776634311309
C           9.19559613087491   -6.39675611344172  -12.85886964406794
C          10.15224290059511   -6.00672652893736  -13.81190952597250
C          10.77394283396066   -4.76881492418584  -13.37820576124972
C          11.90783372898049   -4.21692268139685  -13.89765556110716
C          12.57333087743002   -4.85045370707501  -14.96891657171188
N          13.10152054941632   -5.42526449108038  -15.80962739211422
C          12.53886503210363   -3.08097248124310  -13.34500351083348
N          13.07949040901929   -2.17873694268670  -12.89099765655538
C          10.27252210817100   -6.91392232395348  -14.86292696456042
C           9.44858086754188   -8.00522004195334  -14.70227473277052
S           8.47649792539106   -7.89401875023404  -13.24409333527239
C           9.36552361938775   -9.16127040243344  -15.56304397813901
C           8.04881703577974   -9.82441379939921  -15.66234858873900
C           7.92152488250415  -11.20960710787222  -15.55586591905874
C           6.68318123815974  -11.83832766651237  -15.63121803965058
C           5.53228435466881  -11.07957975669419  -15.82706862770786
C           5.63454942980808   -9.69627711883013  -15.94665837561219
C           6.88113602480356   -9.08688021882486  -15.86299180782920
F           6.95272167268193   -7.76043544122209  -16.00744122224542
F           4.54129075122433   -8.96073796023507  -16.14246964571574
F           4.34399968509166  -11.67194416273738  -15.90118458796037
F           6.59562526994500  -13.16220554919887  -15.51492247149764
F           9.00665739556603  -11.95931734466977  -15.35223673406339
C          10.40132586653639   -9.62974681719887  -16.29377239419944
C          11.78379323445349   -9.17011045145555  -16.25033618050734
C          12.48340947845451   -8.91295018850479  -15.06737631448122
C          13.80527573537352   -8.49032728949743  -15.07348393519600
C          14.48278927421508   -8.33074386114458  -16.27995965561258
C          13.82252107698143   -8.61034890321874  -17.47351725112233
C          12.49851181175354   -9.03007294069363  -17.44424940285887
F          11.87417723687142   -9.28852713129608  -18.59808321382622
F          14.45976160214865   -8.48303437185604  -18.63572810950096
F          15.75077089905201   -7.93534870448689  -16.28908815874896
F          14.42809849472258   -8.24393468066287  -13.91974945343348
F          11.87937117779507   -9.08964777630543  -13.88538722489672
H           3.26989871933497   -0.14412443023122    2.87277398921385
H           5.40062314119867    1.30769600288763   -0.07063709056702
H           7.82695797934498    0.92292680249622   -5.74556965904476
H          11.96126748603614    3.27910840403979  -11.09525923854294
H          11.49079097023494    4.24874164112477   -8.88162263889310
H          10.62399497011114   -2.42308726384456  -11.33406555911174
H          10.90114899537402   -6.77487734238908  -15.72229656426597
H          10.21262276526157  -10.40446687264992  -17.02412605911962
