101
 SCF done       -266.541679074668          0.000972561487
C           0.42705373626223   -4.73279084354581   -1.14147927616445
C           0.16013324448957   -5.99689229442461   -0.47513870710321
C          -0.23428615240437   -6.09154847864024    0.86398213404193
C          -0.53145350725872   -7.31221403209855    1.45529955004733
C          -0.45685855697246   -8.48515045140844    0.70853932658949
C          -0.09648789160601   -8.41917841316631   -0.63515884629375
C           0.19580493303330   -7.18851272403266   -1.20735236359682
F           0.54466199110948   -7.13916838973588   -2.49658825087344
F          -0.03223659022168   -9.53399329142571   -1.36329049059330
F          -0.73485352622712   -9.65877946845809    1.27314096872325
F          -0.89363084073528   -7.36178974417744    2.73849436364671
F          -0.36075884896834   -4.98300007641375    1.60125862364556
C           1.11187608210394   -3.68225432198179   -0.63756190771553
C           1.13783855761843   -2.41219397422223   -1.39605869358360
C          -0.03413008980000   -1.84886481762195   -1.90221721692820
C          -0.02693693588631   -0.64598316606827   -2.60061245474499
C           1.17538006400863    0.02225381139006   -2.81626611632771
C           2.35963036751679   -0.52348426831343   -2.32790200026681
C           2.32959355130080   -1.72324839163411   -1.62613419543372
F           3.48591083755560   -2.23520146283225   -1.19390501110014
F           3.51817810533717    0.09892076201600   -2.53923280262232
F           1.19326704030626    1.16845884224299   -3.48947449012383
F          -1.16571862455249   -0.13504611622783   -3.06528959976372
F          -1.20351070188354   -2.46036416323244   -1.69998800017880
C           1.88230381985985   -3.68650126391223    0.58210404204897
C           2.10592093030590   -2.60386269587440    1.40569417237047
C           2.92902218752054   -2.92626552367038    2.48481385877816
C           3.35021349423290   -4.26827085897599    2.46830892123250
S           2.72880218053113   -5.12464510929021    1.13217721640488
C           4.17202376338763   -4.50950103931822    3.59662824327508
C           4.26610323845626   -3.30889887020421    4.32953768405481
C           3.49816792990125   -2.27553141839488    3.65104628048824
C           3.35490898421752   -0.96912573244107    4.01687504396143
C           3.95239551195395   -0.44046598961931    5.18046402000572
N           4.43574338928062   -0.00108441167995    6.12276492520433
C           2.60090199608803   -0.06559721621220    3.23879926205965
N           1.99680245980255    0.66314068202185    2.59136250240317
C           5.05055379492060   -3.43507658915403    5.46730007263578
C           5.55650306581936   -4.72228731010356    5.60686096227904
S           5.05718302875675   -5.79144415750350    4.31100106388473
C           6.38821954317540   -5.20018743213566    6.65086953082013
C           6.84194016127087   -6.54158252087657    6.65750432936750
C           7.68334226170254   -7.08541792915352    7.68251062307321
N           8.06251361248122   -8.37556698220957    7.59845175407326
C           7.65893876566796   -9.09649220396033    6.59045797508461
C           6.83195491514276   -8.56134085097081    5.58220708049850
N           6.44526938087472   -7.31818989477666    5.63310122992578
C           8.11745655219889   -6.28648518410017    8.77395021354253
C           7.66493155471679   -4.95035437848219    8.76603725275211
C           6.81862599064007   -4.40603019754534    7.73340941726001
N           6.53485004076581   -3.12152693244506    7.96297039393113
S           7.24532849772095   -2.64836963398613    9.31533041882847
N           7.95598108130513   -4.03693640961898    9.69560595673471
C           8.95233817370204   -6.75438496259003    9.82466814102413
C           9.48559081299466   -8.02592534982722    9.99660839423458
C          10.25485169990803   -8.11714861608623   11.14779283287438
C          10.31996159003912   -6.90351538704867   11.86440383945319
S           9.42634393227659   -5.65639602047617   11.11474937119460
C          11.13386556059924   -7.10720330123171   13.00778914632292
C          11.56355630521419   -8.44649518266218   13.01920633420258
C          11.06635659531277   -9.11184723518678   11.82982456331156
C          11.39940031443093  -10.36674844469639   11.40663128387247
C          12.33825431339674  -11.13244898053238   12.12821445608828
N          13.13979959258352  -11.69981951976732   12.72193419551115
C          10.88196415348094  -10.93121566294592   10.22247172011179
N          10.45193339684416  -11.39433900529011    9.26595325346438
C          12.35058817321946   -8.75748853957994   14.12521513699234
C          12.56613009623580   -7.66259193866260   14.93314801507050
S          11.73829889937295   -6.23020293428236   14.33833191681492
C          13.39030046202351   -7.60620246841626   16.11476773245919
C          13.00556151017975   -6.62218520035046   17.14896776975563
C          13.94393494915540   -5.75422095788754   17.70735058064122
C          13.58830467008501   -4.81145696065410   18.66614218400397
C          12.26690470901523   -4.72734043794143   19.09666851772318
C          11.31429117272142   -5.59075433566850   18.56245647651169
C          11.68929349604046   -6.52174138853949   17.60046716315124
F          10.76093133438774   -7.35566568933510   17.12318651583523
F          10.04891923160633   -5.52508461287322   18.97456990592870
F          11.91736658134967   -3.82975677845081   20.01406828654344
F          14.50661708211512   -3.98938335750263   19.17162136430084
F          15.21447751020676   -5.80549742364712   17.30206580970116
C          14.45355430376163   -8.41150366731442   16.33678417812194
C          15.04742565325366   -9.35966797694337   15.40275516703548
C          15.31481177905048   -9.06550560309740   14.06201499256294
C          15.89557048228043   -9.99328560424418   13.20884593679044
C          16.25013637000932  -11.25374345082595   13.68397625379877
C          16.02615552741857  -11.56460404256869   15.02247940056851
C          15.44227930660440  -10.62125651467355   15.85870269440609
F          15.22655320862233  -10.93550290754313   17.14069984611588
F          16.37647869697196  -12.75806632370784   15.49915917442633
F          16.81386875789354  -12.14196467202293   12.87213431395510
F          16.12032430672703   -9.67301792334292   11.93317071689265
F          15.01860286133364   -7.85357674242186   13.57641586930924
H           0.02866898110089   -4.66331566607543   -2.14398799334407
H           1.66382296452749   -1.63817741425099    1.23836782761162
H           5.26351358639339   -2.65868880281854    6.17897112684887
H           7.99262897005429  -10.12437843655958    6.56913595962886
H           6.49162716391877   -9.14883392083519    4.74179004422902
H           9.29641158402218   -8.81897402341253    9.29749540249158
H          12.72362028308323   -9.73833472310066   14.35269888944952
H          14.91567052356734   -8.40071737515109   17.31432631970770
