87
 SCF done       -225.788368504064          0.000217432305
C           1.98924556283079    0.00722890564235    0.82923345898814
O           1.78446411043716    0.81899914707889   -0.31903016835855
C           2.90030759515356    1.50681095431602   -0.73476369503247
C           3.37239804580642    2.62294138605593   -0.06913521455511
C           2.77415156535091    3.26060128824704    1.09027236976039
C           3.48578205331955    3.86881216383586    2.05906817777913
C           4.94674472751290    3.88004977102103    2.13086618712387
C           5.63348680938867    5.08330152973504    2.29072084719003
F           4.93542170850375    6.21928870950094    2.38993233779814
C           7.02146972868041    5.13966794566065    2.30380217536600
F           7.64540301005580    6.31426216197400    2.42555573013302
C           7.76372542904174    3.97097029243871    2.17153849667907
F           9.09417130209409    4.02545301804685    2.16493889318742
C           7.10464776945927    2.74962916372700    2.05482827065730
F           7.80027172422103    1.62080688706114    1.94367306732813
C           5.71607714851834    2.71688472490055    2.04504883114880
F           5.10126319091203    1.53297396429396    1.94308750301370
C           1.29771817330992    3.25349032975182    1.12983061317260
C           0.54672468488464    3.56192008616109   -0.00549806931474
F           1.16214964834370    3.93615087152595   -1.12806602828417
C          -0.84226398804992    3.51748330352087    0.00409998457924
F          -1.53002824474202    3.82087937525517   -1.09596451913160
C          -1.51654297872545    3.15502101680478    1.16703852771792
F          -2.84597980664146    3.10330192261605    1.18277588031097
C          -0.78971251546274    2.84830561081701    2.31352434740367
F          -1.42391993950074    2.49725788648231    3.43214785172639
C           0.59921463344319    2.90433620613053    2.28493019451067
F           1.27442950283328    2.58246955263566    3.39329128920157
S           4.80420303216354    3.24832195448176   -0.79236486545227
C           4.79592924676065    1.99623855116330   -1.97951126580645
C           5.97846744580928    1.95852241786499   -2.78414339271774
N           6.13355093605214    1.11314503682790   -3.79832229696851
C           7.32147742892677    1.16489746268159   -4.37610339182051
N           8.33174630751142    1.92113440607184   -4.00774274022094
C           8.08482392318018    2.75047341424307   -2.98196898066217
C           9.20591841018993    3.51039272890647   -2.50420220466380
S          10.72583456538388    3.07358244416928   -3.19129282863872
C          11.56803028990783    4.08458187754228   -2.07232785932308
C          13.01173335719003    4.20263213111855   -2.10427011844586
C          13.78200899430258    4.28334884091393   -1.00051556997376
C          13.31381886674565    4.11280291851469    0.36694704766854
C          12.43703823040058    3.09843119412898    0.75931282292895
F          12.02117140553670    2.19389722475482   -0.13236102624112
C          12.00172062380316    2.97331654598100    2.07242147126457
F          11.17416958765045    1.98587441014392    2.41345459524225
C          12.43692918352327    3.87691750168549    3.03701492392421
F          12.01029389232400    3.77374374215269    4.29554435925434
C          13.33032819754073    4.88257263632730    2.67981351160808
F          13.76282564020513    5.74851263463558    3.59968100845640
C          13.76549077679723    4.97928152207890    1.36544457231425
F          14.61981328271552    5.95421682304445    1.03678526531865
C          13.62221805740285    4.29686012077488   -3.44443328333324
C          14.76432203726900    3.56961216339379   -3.78147214599870
F          15.32824865616593    2.76441280046126   -2.87881927188526
C          15.33067408428137    3.64068053607878   -5.04984320087203
F          16.41793495408333    2.92640047768560   -5.34006705393775
C          14.76010364885686    4.46147945134753   -6.01839268843673
F          15.29706581035177    4.53893320081374   -7.23371357662241
C          13.62647882485379    5.20538835345117   -5.70361643859542
F          13.07932962440964    6.00576577336818   -6.61872114056731
C          13.07226891364445    5.11584804785379   -4.43223686188286
F          12.00470347835031    5.86981715987714   -4.15392931333572
C          10.70266380458905    4.75024637982794   -1.22044546543275
O          11.19967475584577    5.59444323181971   -0.28760970435743
C          10.40545724082612    6.68391656886656    0.15308754265878
C           9.33751762693422    4.42948875792905   -1.47259776116219
O           8.34255781507033    4.97932806205436   -0.72674784698938
C           7.29867987754502    5.63327885850185   -1.43336326156294
N           6.91261602736221    2.82500387335835   -2.37099026502943
C           3.71235682057001    1.13988613883026   -1.85155262531785
O           3.55347769560870    0.13390767675213   -2.71160378456985
C           2.39263690638527   -0.67165577689071   -2.64775748901303
H           1.01881830227371   -0.42437072745802    1.06490917294387
H           2.35413967055585    0.59199899817179    1.67702676500806
H           2.70798109321606   -0.79180169584477    0.62309934966459
H           2.97626187604906    4.43469423915172    2.82567684051033
H           7.48098183082413    0.50955863754183   -5.22299100109870
H          14.82879978853467    4.53401429192762   -1.09896788056794
H          11.08689236609364    7.32003301516623    0.71559550807721
H           9.59536204814756    6.35242763609999    0.80089751855038
H           9.99794537176735    7.24522357439617   -0.69051389981966
H           6.68251858611210    6.11027074368075   -0.67405384544749
H           6.69779561507054    4.92146443914538   -2.00015517411713
H           7.70763684816549    6.39307727568445   -2.10555512050671
H           2.41643572273114   -1.27536984167673   -3.55345701935959
H           1.48443072293402   -0.06625449381870   -2.62821534665416
H           2.40872922153287   -1.32986454337919   -1.77530060786823
