59
 SCF done       -138.534248437750          0.000903167876
C          -1.85197723189288   -3.25321532257342   -3.95675542208525
N          -0.75959947004325   -3.08919032143336   -4.63929426237486
O           0.00822568660161   -2.20883462061180   -3.98756135369114
C          -0.61532029241659   -1.80168579782338   -2.85452226026635
C           0.10123153546598   -0.83710707019800   -2.04775130516070
O          -0.27041133402312   -0.35575071710003   -1.00476130342118
C          -1.84873108922286   -2.45428345083084   -2.77549564362997
C          -2.89282182494418   -2.39542034858593   -1.80858852104308
C          -2.94373573651648   -1.68206652963884   -0.63155715447906
C          -4.14536622564861   -1.89053168634500    0.04463795387165
C          -5.02564647455496   -2.76318139452850   -0.61368489181221
S          -4.35164026562911   -3.33816505336807   -2.08822709863275
C          -6.22182016729020   -2.94660593272831    0.08242167236845
C          -6.24688735013118   -2.21173551677661    1.27825440841717
S          -4.79189565510487   -1.28968216397625    1.54479342154911
C          -7.42414021686224   -2.36590820909780    1.99962617529161
C          -8.31484094351904   -3.21571581996140    1.36346059800991
S          -7.68402934638501   -3.83477495274713   -0.15051493815760
C          -9.61226412073671   -3.58555080172113    1.81545916388904
C         -10.44516237579265   -4.43493324211789    1.05698603580787
C         -11.76504984354762   -4.80305551005338    1.47975918840156
N         -12.50493618721673   -5.61272990616665    0.69562071234302
C         -12.01900684629829   -6.04863840494195   -0.41975598611397
C         -10.70973792432165   -5.68703140287631   -0.83678927098253
N          -9.97259867733336   -4.91071385797015   -0.11269067655673
F         -10.20814811611332   -6.13766927356999   -1.98164968030297
F         -12.77829811750200   -6.84481146369949   -1.16474174589163
C         -12.33006977998351   -4.35137654065831    2.69109365875039
C         -11.49586755892586   -3.51240425997641    3.46774236260073
C         -10.16589227187801   -3.13510705269801    3.03754960884046
N          -9.57291761935939   -2.33892254799662    3.92873415838795
S         -10.56240592737734   -2.09005833947644    5.16439340255243
N         -11.79821328886955   -2.97044831062079    4.64862981006456
C         -13.64722028218477   -4.72038549978881    3.08276762005450
C         -14.30073799162634   -4.35486373710369    4.24882640470260
C         -15.58392244697401   -4.88338384889863    4.31346724183188
C         -15.92818998913430   -5.65775425633468    3.19420943233394
S         -14.63652583939874   -5.73539687264977    2.05105298653747
C         -17.22358336813505   -6.16845017447563    3.29592347099442
C         -17.86196254045749   -5.78934003572711    4.48697010453241
S         -16.86011277532855   -4.78619509591435    5.49670904329948
C         -19.15732423311982   -6.28873497907695    4.61848071233053
C         -19.52134887793263   -7.05011133202079    3.52982101487017
S         -18.24520210861995   -7.15318895752831    2.32326040506871
C         -20.74872705062734   -7.72877890594323    3.28203190744356
C         -21.90746771772883   -7.86709531073256    4.05114254491984
O         -22.79216303992823   -8.62137998563112    3.35353463021814
N         -22.26236541753736   -8.97380350872068    2.17693357919443
C         -21.06859168187912   -8.46820700652653    2.10554917101843
C         -22.34690936384562   -7.41737312149448    5.35492666920328
O         -21.72126032804989   -6.73120916581973    6.12669659140497
H          -2.61795760916314   -3.92157007636891   -4.29619547011329
H           1.07141385679135   -0.56715438901491   -2.50044399144705
H          -2.14607571494148   -1.04656208393125   -0.29320285294226
H          -7.64311271887763   -1.89282813743346    2.93778041065513
H         -13.84649589555517   -3.73569869543734    4.99862956357997
H         -19.80528256841402   -6.11333080783748    5.45749140874242
H         -20.45553493737693   -8.62484732225672    1.24095146529319
H         -23.36198430257400   -7.78194087046656    5.59132511971390
