71
 SCF done       -161.222663167765          0.000825477510
C          -2.32699165829655   -0.60581720618949   -4.46998279464634
N          -1.21482309878987   -0.20447338375104   -5.00705288884689
O          -0.42869026305816    0.26184029894316   -4.03110649427024
C          -1.05933299103120    0.15538800686538   -2.83857651575124
C          -0.31448116472212    0.59846924721293   -1.67488275249645
O          -0.70107531629993    0.57425872105373   -0.53323469447880
C          -2.31884205523175   -0.40832507667810   -3.05755448347082
C          -3.38016039924275   -0.73509045903993   -2.16419143492021
C          -3.49648613196632   -0.47795932166207   -0.81188447287174
C          -4.70051570440202   -0.95767943432366   -0.29679022583376
C          -5.50071764519209   -1.59335027374905   -1.26832044372433
S          -4.77989379387121   -1.58458667288448   -2.81072952651128
C          -6.68473617675929   -2.06673864056547   -0.65681123138229
C          -6.63569257533844   -1.72576245343159    0.71137110046000
C          -5.39541182169886   -1.01051463748826    0.97883297856457
C          -4.99663704098735   -0.49100363707676    2.17411960847202
C          -5.77974909232774   -0.62222458830195    3.34179991782985
N          -6.40709197883212   -0.72451584275471    4.29609206021453
C          -3.79311345063172    0.22835297277198    2.34460996387988
N          -2.83188212037751    0.82834953538478    2.51479265998855
C          -7.75599221462757   -2.15014782928763    1.40921254608286
C          -8.66021356582995   -2.81460524325435    0.58639271623803
S          -8.11168346510836   -2.91097714292120   -1.07881448017613
C          -9.90021429817392   -3.37903970305948    0.97515352107153
C         -10.73109358012029   -4.03848595682178    0.03830273332594
C         -11.99864840350556   -4.63676315828269    0.38048648598790
N         -12.68887636639446   -5.28294705688236   -0.57020100701136
C         -12.22399171146447   -5.34376440583994   -1.79307678656128
C         -10.98733471867351   -4.71025408889062   -2.14233722809862
N         -10.28825540293888   -4.09293698501159   -1.22276842951277
C         -10.49926654400670   -4.74583106954006   -3.47172791605477
N         -10.12107475895047   -4.78557569516006   -4.55183939784242
C         -12.94368204697351   -6.06117230442451   -2.78345829082869
N         -13.47487249211112   -6.63788291086630   -3.61738737823696
C         -12.50630165736483   -4.57074949878058    1.70315151142517
C         -11.66914493229011   -3.92013148801084    2.63821282218479
C         -10.39655981360756   -3.33612865565395    2.29693810505633
N          -9.81107643324634   -2.78738726761057    3.36228342472536
S         -10.74417545950219   -2.97838653265055    4.64824415510283
N         -11.94712817419911   -3.76750986114214    3.93366466441572
C         -13.75377062519087   -5.11176405117171    2.11351809367986
C         -14.73458740297660   -5.71690925747220    1.33467091625154
C         -15.82011777683975   -6.13269016643397    2.09193521481679
C         -15.66994251058666   -5.84775484334816    3.46498746370689
S         -14.20084942513221   -5.05151405886701    3.81441556023861
C         -16.81307209993101   -6.33044470654018    4.14317258921773
C         -17.68660489863856   -6.92309873639915    3.20957142730869
C         -17.09992638878460   -6.79787357568523    1.88512116672430
C         -17.63452220007782   -7.18245253609099    0.69240503275877
C         -18.90010719316210   -7.79819370960468    0.57330116229619
N         -19.92738921079521   -8.28879298049332    0.44284407298556
C         -16.96046138451965   -6.95806340685217   -0.52893010479924
N         -16.42030993664408   -6.76137324513014   -1.52059829893753
C         -18.83535468015299   -7.45255427977201    3.79803423412372
C         -18.84529945785960   -7.26131190731140    5.16561911404637
S         -17.41226721365108   -6.41135579702622    5.73542289761591
C         -19.82458099536470   -7.64695949300091    6.12642598903409
C         -20.99498701798082   -8.40113578763418    6.01074922844708
O         -21.57338664562809   -8.47765060610278    7.23172131830310
N         -20.83721260869115   -7.81311728970602    8.12871013466213
C         -19.80657883265684   -7.31708834106693    7.51363649593750
C         -21.66970552130181   -9.10056614612813    4.93316338237067
O         -21.30534529718177   -9.15513655838126    3.78547281577244
H          -3.10944089553557   -1.01950104258705   -5.07395202854208
H           0.68858670164706    0.96943554849775   -1.94787769122130
H          -2.73122729887370    0.02662244643007   -0.24882607661610
H          -7.94092771568547   -2.00633010780728    2.45773645131225
H         -14.62937418681878   -5.83632491843709    0.27272040864054
H         -19.62833820272294   -7.95978000306747    3.27729422314283
H         -19.07650152388117   -6.74037333517390    8.04517348455340
H         -22.58485703626215   -9.60820740780285    5.28410922066186
