73
 SCF done       -156.591492220738          0.000998114473
C           1.00555393438377   -1.55320233677995    1.71005747932647
C           0.06750636258519   -1.26491112333296    0.79226252228748
C          -0.92318899025329   -0.31326929677568    1.21073580723904
S          -0.60290644088602    0.21070181066628    2.85085218250998
C           0.86196457715604   -0.85544009083448    2.97485021482328
O           1.53298941401525   -0.91066909730393    3.96431762522968
C          -1.95260258800295    0.08712543766371    0.41127968573732
C          -2.98518912741797    1.00332696358111    0.69953298319188
C          -3.23172514963942    1.76705768533002    1.83417108953272
C          -4.37820091959517    2.54146088168493    1.70640662683894
C          -5.02318934489359    2.37570986638507    0.46098125159460
S          -4.20659018775357    1.26915644443071   -0.54593241336420
C          -6.17648681940829    3.18553671807680    0.43724780670372
C          -6.27480226665967    3.87229554924623    1.66754375411332
C          -5.12656839992418    3.51444124476276    2.48894940518947
C          -4.78966709037449    4.02786658870326    3.70467936128844
C          -5.51944278414256    5.06773730225649    4.32402133465229
N          -6.06338828272810    5.94067776446204    4.82873432587322
C          -3.64391778425729    3.59886491228768    4.41117077927277
N          -2.71836224038448    3.25573430001316    4.99356584661485
C          -7.41358216926325    4.65991574985031    1.76371865800961
C          -8.18147995986244    4.59574465321115    0.60486818779627
S          -7.47242416317525    3.54350113067090   -0.61566037191924
C          -9.40325334558830    5.25036122619196    0.37290929782419
C         -10.16680269704215    5.97002862986410    1.30510973305246
C         -11.37503718385477    6.51184488518050    0.74461649247110
N         -12.17917346787286    7.29151986182159    1.47054147156358
C         -11.85283931012390    7.48323721893616    2.72927047109671
C         -12.69405517019101    8.42750917293360    3.51105634860608
O         -13.56487498860950    9.09786236016006    3.00179288513930
C         -12.36129909160155    8.51125148189992    4.94455908221915
C         -11.35206148294062    7.84314547615854    5.51250637080499
C         -10.46120139137833    6.92528942016191    4.77905808655288
O          -9.60587428916189    6.26749766967520    5.32865401758354
C         -10.72087107809137    6.83820283100488    3.31787021605333
N          -9.88477570061277    6.12032418827395    2.60086264336528
C         -11.55569946343314    6.17472012597290   -0.60531742525935
S         -10.20715061662731    5.23592115654396   -1.16649921438295
C         -12.65454665927451    6.50794841662279   -1.41628182009242
C         -13.84927209561658    7.07785871494109   -0.98759701642724
C         -14.73768363630840    7.25466643377539   -2.03891421054105
C         -14.21521289181617    6.84457500039692   -3.28511041316127
S         -12.63818696916755    6.20277243923764   -3.14960616484448
C         -15.17651669945710    7.09958597924837   -4.28616890185425
C         -16.31758610063545    7.66608743730586   -3.67954421092418
C         -16.09099182383137    7.74899040074311   -2.24502770715144
C         -16.99149533746302    8.12682260678815   -1.29406096201696
C         -18.29051332578160    8.55563124057317   -1.64193003462977
N         -19.34229776945086    8.90041751204419   -1.94183295415589
C         -16.72717676452512    8.04845135251298    0.09143362726127
N         -16.55758345049131    7.94729186958242    1.22002719918173
C         -17.32903623576527    7.96026998420683   -4.58635324310203
C         -16.98745719213156    7.62472130065591   -5.88966146410333
S         -15.36029464496855    6.94122492143500   -5.97351919129505
C         -17.68243221443816    7.75659599877851   -7.11314483961284
C         -18.98681324653181    8.07959074140167   -7.34260409559785
S         -19.54794140156245    8.25576067473834   -9.00205688904097
C         -21.22920654541429    8.65202541477912   -8.46459632861942
O         -22.11409011701545    8.90104153458023   -9.23247296417046
C         -21.24774819386118    8.59273162096201   -7.01336129807733
C         -20.07301419629856    8.29447679890865   -6.43142237539057
H           1.82486056063007   -2.23829153133222    1.58348924792422
H           0.02596853639755   -1.69336811107509   -0.19483595344109
H          -1.99275475304594   -0.35841530849682   -0.57587699880684
H          -2.59730131886785    1.74533713625292    2.70034980300016
H          -7.71456142911197    5.24909051609821    2.61152906823967
H         -12.99517206731623    9.17096751860572    5.52164451904745
H         -11.13907784718959    7.93664054279057    6.56889473607013
H         -14.01525539842941    7.34178078391853    0.04149245169087
H         -18.25298361278740    8.43329081816060   -4.31630212034676
H         -17.08262887630119    7.56513894834074   -7.99452389710247
H         -22.17285130893389    8.77907302775505   -6.49667832532593
H         -19.95126527559250    8.19168850174795   -5.36878089179543
