73
 SCF done       -159.111430497175          0.000800625849
C           1.07077055464814   -0.37118578754259    3.77557181668568
C           0.08218950924291    0.34361123840504    4.33872198724022
C          -0.85501127550028    0.92119995764210    3.41642277911430
S          -0.41368682624383    0.51491237206677    1.77191503506213
C           1.02895653664213   -0.44112315388877    2.32637262283082
O           1.76053864780358   -0.99811349357541    1.56089014392252
C          -1.92908875471249    1.66138264251366    3.81558488882974
C          -2.92322394102457    2.26853193726196    3.02208556075526
C          -3.07137130676636    2.32743095713644    1.63985094906719
C          -4.21563179903306    3.01847666534111    1.26688983259521
C          -4.96179394600652    3.49745561291664    2.36903565583569
S          -4.23677112223878    3.09900315421000    3.85768594196250
C          -6.11147370047572    4.16022203458668    1.89347519826136
C          -6.09817176534331    4.10762924976817    0.48045102970311
C          -4.90779768824895    3.39565517850274    0.04385363871410
C          -4.52929444189087    3.13552802904340   -1.23969759067841
C          -5.29959027096654    3.55376063520456   -2.34628414041557
N          -5.92003557043871    3.88866118036992   -3.25038373659534
C          -3.34612353065742    2.43235381593913   -1.55422239142596
N          -2.38778543927917    1.86436687628611   -1.82296683191645
C          -7.20424225314801    4.71702265659399   -0.08874291076860
C          -8.06895475125356    5.23051233456221    0.87443002895690
S          -7.49175654548129    4.96265929648701    2.51175456870470
C          -9.30625035520037    5.87606812552407    0.64114963885691
C         -10.11618861201657    6.31207094042735    1.71771900107531
C         -11.41442780989237    6.91504576938442    1.54163969309998
N         -12.08397991265342    7.34331852916280    2.62071322635073
C         -11.57113652837131    7.18422275903909    3.81659985877050
C         -10.30947588541806    6.53226902990134    3.99518007557767
N          -9.62849774133877    6.13068598768770    2.94920441520644
C          -9.77385975302027    6.32271829860265    5.28941624057492
N          -9.35937886241584    6.16388630488728    6.34517109756503
C         -12.26756843301226    7.68608222411807    4.94616286639516
N         -12.78283887589683    8.08854530687964    5.88598548785110
C         -11.97418550448075    7.08111851477380    0.24910948723142
C         -11.13717176839624    6.70300724663412   -0.82569543268120
C          -9.83480379466210    6.11223626293544   -0.64844806238080
N          -9.26085114566659    5.83774938787123   -1.81971889125686
S         -10.23718937372374    6.27141901486419   -3.01339163945606
N         -11.44910912294303    6.82891227301140   -2.11549725962820
C         -13.28187858794840    7.57245727991316    0.00110908502388
C         -14.28835677259979    7.84805475447172    0.92125151826811
C         -15.45280807315916    8.28015050080652    0.30564074602422
C         -15.33900494881353    8.34990042638718   -1.10122634352740
S         -13.80062754110352    7.85567502747559   -1.65645864579295
C         -16.57061638941355    8.80024616139818   -1.62414273422189
C         -17.46803822913022    9.01490017503414   -0.55498571660832
C         -16.79620888707688    8.67952695152505    0.69060874308915
C         -17.32965518665623    8.69293405248025    1.94570126724145
C         -18.66665086759398    9.07903533329907    2.17622851642628
N         -19.75720343526451    9.39158765213745    2.34403924854784
C         -16.59190841565634    8.28844414125851    3.07946586083355
N         -16.00333587157988    7.94077912750435    3.99945423665663
C         -18.71700551312439    9.46002667586538   -0.96802190996131
C         -18.80367828961415    9.58871090966096   -2.34886586517855
S         -17.27910288970388    9.15770308963352   -3.13204218525851
C         -19.85296976563100   10.00781545466964   -3.19641862612860
C         -21.16451706906108   10.24870118112383   -2.91020110828297
S         -22.22314954695210   10.84010853391603   -4.18585379370816
C         -23.65066340758658   10.88624098697615   -3.07478008403041
O         -24.73523309602902   11.25174311289395   -3.42709903403218
C         -23.20709604500046   10.40965147132132   -1.77617991198911
C         -21.90658908788336   10.07868444266761   -1.69495472081192
H           1.86137647238659   -0.87901451435401    4.29864687691438
H          -0.03585914307079    0.49483586061300    5.39828265133726
H          -2.04640923694024    1.79530663007005    4.88457568163466
H          -2.37032092898187    1.88340970076481    0.95807967372330
H          -7.41158228070561    4.79982134815910   -1.13979588976749
H         -14.14681376105512    7.72841052891090    1.97904076927489
H         -19.51315016447506    9.71040062627001   -0.29421309854933
H         -19.56452142370370   10.15124794814336   -4.23061928119772
H         -23.92133247781563   10.34375340714695   -0.97436240814186
H         -21.45314597967029    9.68960165637781   -0.80195739755731
