67
 SCF done       -139.737945230117          0.000684587717
N           1.67627450578583    0.88327222169746    0.19519490989559
C           2.80867910808799    0.71337714641464    0.26597635704085
C           4.18806836814032    0.47270569281591    0.35024745471611
C           4.71343849824344   -0.80765611772213    0.47030044141921
C           4.03939799678231   -2.05634676079666    0.51106942745182
C           4.63562586440513   -3.29976200612609    0.64523760491387
C           3.72283873841186   -4.34898753550565    0.62558525318365
C           2.41494143467343   -3.91076996923086    0.47499498605163
S           2.30557472415953   -2.19241447727526    0.36565019539203
C           1.37168910219180   -4.86345843426541    0.48240273534132
S          -0.31085631511204   -4.65061467641561    0.19769008372023
C          -0.62956332480890   -6.33629592875872    0.55001995845145
C          -1.97451090558242   -6.76186859592208    0.44330972435334
C          -2.54832241243895   -7.93641028411081    0.82642926694571
C          -1.99900396839069   -9.05153815688399    1.53736507620168
C          -2.86158217201003  -10.05823097695983    1.76481876357796
C          -4.20441704020699   -9.85637453582297    1.25047877671045
O          -5.15711258811810  -10.58310333634240    1.29921916653602
S          -4.25080058756827   -8.22600669720418    0.47592983000826
C           0.54458295022201   -7.00856925101860    0.85046176054676
C           1.67200085063159   -6.18781327965701    0.80580795836551
O           2.91665990479584   -6.61683287322574    1.11123268681179
C           4.01415181773194   -5.81983344583933    0.67385600242649
S           6.46495789157033   -0.79527888002507    0.56089614330757
C           6.46475020623792    0.92018353874630    0.42546491673398
S           7.78050215605412    2.04738764858661    0.38088642642351
C           6.60838616424882    3.31235910186001    0.21503704797482
S           6.81013373869413    5.01192689449059    0.05274708415573
C           5.07390781070756    5.21657779087176   -0.03533134871758
C           4.54467085195383    6.52588711233642   -0.20394761483620
C           3.22811038583938    6.94252799264299   -0.21005300251718
C           3.09992497228593    8.32261196330759   -0.40335747104085
C           4.32435705267043    8.96867786840278   -0.56355798624585
S           5.64247444795162    7.86351500890149   -0.44474460545674
C           4.33410348933181   10.34730179022473   -0.87071362053601
S           5.63378408026435   11.33386478187423   -1.41508381727744
C           4.56858952227800   12.71930865124806   -1.57269378297314
C           5.14572692974758   13.92027961355773   -2.04477053865366
C           4.62064970915052   15.17654469304625   -2.09777108470262
C           3.38251381887225   15.69142292786261   -1.59825861125029
C           3.18371401708798   17.00373716186840   -1.81955396593464
C           4.25003361820989   17.68411771363388   -2.53084572736033
O           4.33094567848242   18.83227821061273   -2.86858731854539
S           5.54787177592965   16.47183950672779   -2.85376038543076
C           3.26991104310969   12.37481584067571   -1.22527825308871
C           3.13517691388711   11.04908184940864   -0.83011778388064
C           1.89499859797284   10.36344446744438   -0.33593210445919
O           1.90983644022068    8.94795708003897   -0.49818005754900
C           4.39707353461313    4.00587574455559    0.06358354375431
C           2.99826038386498    3.90557097112701    0.02998526962342
N           1.85321059981670    3.84024066896720    0.01292736860437
C           5.28108562462529    2.89825945495497    0.20215216326118
C           5.19676274090499    1.47804017001335    0.32235692465159
H           5.69910496542461   -3.42585203707883    0.74716031239909
H          -2.63907952144288   -6.03461748366073   -0.00651055771485
H          -0.98207901034536   -9.04803150771966    1.88427390124941
H          -2.63754094097141  -10.97060046902789    2.28929046352222
H           0.61264351039609   -8.05780225549383    1.06044517459923
H           4.31744782784315   -6.16409056360420   -0.33027763208771
H           4.82891510037252   -6.03691660005054    1.37020478788326
H           2.38625643867558    6.28982376025573   -0.08321806058043
H           6.15651285456924   13.81572487566584   -2.41924038580433
H           2.69314444061601   15.06886867391971   -1.05761563864401
H           2.32148998314670   17.56838449928441   -1.51085673677387
H           2.43760654877777   13.04960850700166   -1.28754860193152
H           1.01074054376808   10.71008048025659   -0.87776979947250
H           1.75485851256863   10.59012506041537    0.73556654524247
