83
 SCF done       -153.493865103701          0.000840418381
C           4.93571875524731   -2.52921444382812    6.59906693410366
C           4.34606118440785   -3.42410079345537    7.45470530685303
C           4.10594061157922   -3.22277052045918    8.82505882663722
N           3.87895530843061   -3.11734007812903    9.94574327969038
C           3.92425443798658   -4.67528454108145    6.95940394227238
N           3.57825323235625   -5.69068113550117    6.55311943843804
N           5.40138673794883   -1.28648040425853    6.88243656727886
C           5.34791040783007   -0.67901878195022    8.19009763861839
C           5.95221185620874   -0.58020884245416    5.81735998556290
O           6.40283010050319    0.53750125561948    5.92806133080451
C           5.89465359637492   -1.37341089371246    4.59565755412335
S           5.16682879371286   -2.93366521717850    4.91072737725237
C           6.34408769651416   -0.88956363341017    3.40828725545830
C           6.33582967140076   -1.52084929348714    2.14921241932127
C           5.93140002954817   -2.79949850069482    1.78241915095515
C           6.04796203323651   -3.04958425898677    0.42384130917958
C           6.54785578731936   -1.94636347887036   -0.26970653019109
S           6.88609996804924   -0.61287206544974    0.75376156520387
C           6.66586369786609   -2.08597985548822   -1.67346184642344
C           6.27374428807259   -3.31409197555194   -2.20530562238116
Si          5.70217996831564   -4.45556450072284   -0.80389919272756
C           3.85938735118031   -4.89874635308872   -0.90382191690543
C           6.84868943053435   -5.94590904813912   -0.54189863300590
C           6.38970420511268   -3.32989709754672   -3.59228245658424
C           6.86017147049104   -2.13829759994953   -4.10392321094194
S           7.18205677095972   -0.96292547319469   -2.86991078405542
C           7.04716489294326   -1.76917916869038   -5.47597742553389
N           7.49696658172880   -0.54038925270768   -5.71393458308336
C           7.57940762862970   -0.19594315091599   -6.99707492359227
N           7.25922059128822   -1.00882125236731   -8.01313623313514
C           6.87046630093106   -2.21572320621772   -7.66006997876062
N           6.73594401655304   -2.66085397245164   -6.42628568952213
C           8.01914440216162    1.13093903740442   -7.30628564574924
C           8.51679552808279    2.07534117664469   -6.42926226766778
C           8.82956657495946    3.27739025013039   -7.05317751078438
C           8.54721139270173    3.23586557607021   -8.41945693725407
S           7.92891576892392    1.71645101193351   -8.93597016586915
C           8.78000260394988    4.42741914673838   -9.14872124129109
C           9.29368079807021    5.50316350674018   -8.41291143010428
Si          9.52485210160362    4.98040790586984   -6.60532368248152
C          11.34992456560394    4.91724922124997   -6.08040979392789
C           8.42307397782254    5.95418694407228   -5.40314283650564
C           9.45057629282881    6.62086565035471   -9.20714657067002
C           9.05811561821026    6.43175301159615  -10.53624653481635
S           8.49130214737144    4.79600953906819  -10.79693042179941
C           9.10396943004112    7.45712744744451  -11.49561476385425
C           8.71806255516486    7.46007952263505  -12.80427285579301
C           8.15643991062299    6.38121621791486  -13.58652002183246
O           7.94390724785899    5.24072092799411  -13.21949810688533
N           7.86712683058215    6.80739654789868  -14.87639886448170
C           8.15514086229992    8.10494623497843  -15.16199966725294
C           7.95704472414961    8.76547004139019  -16.34822909799970
C           7.40159960371230    8.21772089243188  -17.51722030265685
N           6.96119439724670    7.83137779520639  -18.50502179663778
C           8.32061139078996   10.12373541316434  -16.45614807213430
N           8.61262315936295   11.22907476031786  -16.54893963227988
S           8.84807269384486    8.91815926029335  -13.78092794455024
C           7.29320743021550    5.88002547814897  -15.82127877673807
H           5.90616258503611   -1.27081292445311    8.91587171843807
H           4.31629733139697   -0.57685534867478    8.52830353330029
H           5.80171903826500    0.30786496687681    8.09351967821336
H           6.74343221496825    0.11718387859440    3.45165765896422
H           5.56532784495894   -3.52198893516117    2.48893867967845
H           3.53196744819329   -5.38608287702796    0.00885499907842
H           3.67368343274052   -5.58102926910382   -1.72688845826562
H           3.24097495235881   -4.01901675251190   -1.05351748930634
H           7.89119992067463   -5.64764750846493   -0.48683057869465
H           6.74716346141266   -6.65498235105723   -1.35698721419942
H           6.59995485213099   -6.46391120956058    0.37867392385049
H           6.14092725042515   -4.15921486183290   -4.22842859920895
H           6.62887096359081   -2.90655963296872   -8.45894611560570
H           8.63504462140125    1.86755208786255   -5.38158093628720
H          11.45397081814691    4.43796343187666   -5.11240574469974
H          11.76383993596281    5.91710337533232   -5.99914900406773
H          11.95258539548647    4.36319584388961   -6.79342997205996
H           7.39156473958524    5.98486478921566   -5.73994110165589
H           8.77218205832352    6.97666238743992   -5.30190620615689
H           8.43859855727243    5.50162857390598   -4.41702422610134
H           9.82860982510077    7.56506980837256   -8.85622716296226
H           9.49618173710461    8.39611331819388  -11.12004331782986
H           7.19202139458125    4.92677540162932  -15.30142581776384
H           7.94332471451917    5.75864531212733  -16.68802320241204
H           6.31291549496594    6.22245351198271  -16.15380095715885
