85
 SCF done       -161.270929790624          0.000416249920
C           0.91906292065789   -3.36077756964087    7.96401844906895
N           1.63830307297531   -3.09361393924150    6.74200118359703
C           2.59653834601105   -2.13809938655116    6.62483420660678
C           3.05617218977439   -1.28677848670720    7.59851256763500
C           4.06657230804193   -0.35420555682348    7.28522418177443
N           4.88846233422044    0.40692235191677    7.03890570955359
C           2.61670329343557   -1.23935197612235    8.93234083358484
N           2.30402005085521   -1.14956764289999   10.03395784228822
S           3.23777602806941   -2.08994782445739    5.00479923019850
C           2.18074884906901   -3.40484377122699    4.49018044848371
C           2.25413908269041   -3.82332494655125    3.19202710763083
C           1.56335191124554   -4.83305099330996    2.49790558580035
C           0.60172029223209   -5.75842091308485    2.89142785519178
C           0.18321631037587   -6.59044854139305    1.86830327155717
C           0.82553740753006   -6.30873426551930    0.65760158858815
S           1.94789833671607   -5.02146876849054    0.78904695717991
C           0.45321117754047   -7.10035688272990   -0.45160421975663
S           0.98479369341555   -7.06104705072769   -2.08859016584758
C          -0.09889072997324   -8.36801512238999   -2.46614718768002
C          -0.15538686697024   -8.84358562313974   -3.80736286383571
N           0.63728445775497   -8.25865590947080   -4.69454508028301
N           0.66399507043331   -8.58227524249244   -5.94654181358889
C          -0.10048082589082   -9.52995409598057   -6.47083309177906
C           0.01403076920013   -9.76173368671752   -7.87143397053471
C          -0.68214031427181  -10.65750200887683   -8.66408853754126
C          -0.31968949857072  -10.59012594811382  -10.00322527704344
C           0.66958477641744   -9.62766345558502  -10.22111223756144
S           1.14860187063800   -8.81036615051816   -8.78425202480228
C           1.10423195670973   -9.47442638690408  -11.55721354578974
S           2.27826204053002   -8.42682931085181  -12.23945214752675
C           1.95963481580499   -9.07857856939119  -13.83608339019223
C           2.68228459327435   -8.56604124176845  -14.92983659558913
C           2.57916284332652   -8.90541441315468  -16.24220667126018
S           1.50523836479022  -10.08457578116996  -16.96327869044020
C           2.13306725055078   -9.73909374198745  -18.56113005779462
C           1.64448627791145  -10.39995066778821  -19.65939606020030
C           0.62818317581327  -11.36235649370563  -19.48922777283769
N          -0.19968365913945  -12.14400769937746  -19.34825207724437
C           2.06154227202791  -10.21476943365431  -20.98880970609086
N           2.35718877894137  -10.11136469038249  -22.09363172184023
N           3.09986483069129   -8.78830658867801  -18.52169305194051
C           3.80406316669036   -8.29880330330012  -19.68189704664412
C           3.40476024060396   -8.27474783159278  -17.26385659014095
O           4.24525818710422   -7.42258360878875  -17.08503747596114
C           0.97889731718613  -10.06430814507798  -13.78447142639529
C           0.49233279021763  -10.29539765563357  -12.50872422126050
Si         -0.78086526486932  -11.40791775403166  -11.64915659022286
C          -2.56171417092724  -11.03342800115849  -12.19121783036118
C          -0.31973246915662  -13.24781431066940  -11.73113373434630
C          -0.99244779458872  -10.25062464488274   -5.62272780282805
N          -1.83796207083009  -11.23587461169373   -5.90455421447844
S          -2.59380730515897  -11.67191341694595   -4.54968294153329
N          -1.88448879744585  -10.63028489344893   -3.54553549659127
C          -1.01980865739131   -9.89434608291024   -4.23533105950855
C          -0.81802983081510   -8.79334163050715   -1.36247324366281
C          -0.51377883007607   -8.08026474769584   -0.21046055750988
Si         -1.02757146594705   -8.02639645232059    1.61349147826469
C          -2.84015736509149   -7.51949054696667    1.86379741652788
C          -0.52568774804894   -9.58759822688877    2.57121682994813
C           1.35376654787590   -3.84140118896827    5.60226144364455
O           0.51368007377749   -4.71849562309751    5.61632467868580
H           0.37376749973039   -2.47589553518352    8.29308288970976
H           1.60079979742697   -3.67624927627013    8.75424548412242
H           0.21588222280879   -4.16462105370378    7.74389890609441
H           2.97162206336378   -3.28252762434149    2.58390131492710
H           0.23416680857689   -5.80167778620262    3.89905443738465
H          -1.42244746102847  -11.32184677782957   -8.25692495165417
H           3.41803132953375   -7.79876420326142  -14.71796987006793
H           4.34308746148530   -9.10655472624596  -20.17773731860635
H           4.51186627937633   -7.55063553327770  -19.32337486218861
H           3.11328379434672   -7.84086895778430  -20.39044994264340
H           0.63649942432263  -10.59411342791104  -14.65471032993303
H          -3.27267621295723  -11.56559808268552  -11.56765495436470
H          -2.72419702817010  -11.34623445270954  -13.21755549318340
H          -2.78742656778089   -9.97349680730598  -12.12520507430622
H           0.70537458470074  -13.42020711154829  -11.41793774736906
H          -0.42791581334514  -13.62485180243987  -12.74293410225877
H          -0.96828394582372  -13.83500963920119  -11.08922603606977
H          -1.53277878693548   -9.59374767095879   -1.42303270232421
H          -3.03273714806233   -7.29705838755824    2.90824369368219
H          -3.50872346642029   -8.32117716434858    1.56734981115818
H          -3.09532839563426   -6.63881428902446    1.28251551520665
H           0.51128020067985   -9.85359340307170    2.39058042054237
H          -1.14262889427576  -10.43213883515067    2.28188472158195
H          -0.65042415385294   -9.43690634996927    3.63853551522118
