62
 SCF done       -132.023400807455          0.000332165917
C          -1.88612283882372    3.70473061355879   -0.74059448928000
C          -3.02003372023463    3.37673755565578   -0.04605445086130
C          -4.07575892174847    4.24963592450525    0.27406074741381
N          -4.96746459796742    4.91086655775654    0.56603521301292
C          -3.19386125347915    2.05250038696300    0.41042585319714
N          -3.33552615279191    0.97680946312411    0.78131161407255
N          -1.54271495001346    4.91327491767974   -1.25645572294197
C          -2.35725694870887    6.10024570092916   -1.15061198017567
C          -0.32675072661182    4.97146502951245   -1.92465432582990
O           0.10523531299328    5.97934444189740   -2.43263463118435
C           0.32240721375371    3.65950749867530   -1.91947700368708
S          -0.65829057187196    2.49433044527374   -1.06291093165651
C           1.51380405045408    3.45815527786118   -2.53534895174457
C           2.25362579513185    2.25925718504750   -2.64030166956499
C           1.99262335258605    1.00304651015058   -2.12055990616039
C           2.96987139988112    0.08137512818198   -2.48508817218339
C           3.99310906487444    0.61225430706408   -3.28839386671714
S           3.73900499217351    2.28935656380217   -3.58400838420067
C           4.95484964757735   -0.32144594473173   -3.67061128996143
C           4.67106360998484   -1.57206459937586   -3.15928599354012
S           3.21432163960071   -1.60315090566014   -2.19151376561232
C           5.42140387339262   -2.75267956515859   -3.38864768566964
N           6.47203955164518   -2.79614171259852   -4.15631797829579
C           6.95495001453746   -4.03468831599965   -4.22494617416840
C           6.27295737177946   -5.01871337001003   -3.48428306364633
S           4.94721386608047   -4.30713504552468   -2.65786322904581
N           6.73954200233664   -6.26187499750219   -3.57335552872278
C           7.77200544253878   -6.31183701792190   -4.36508550014338
S           8.26421189291773   -4.75230185845214   -5.07296751756577
C           8.44799529717487   -7.51578995986528   -4.68520848304083
C           8.13648008444254   -8.76810698171581   -4.19245576573669
C           8.95635827288197   -9.74800516920585   -4.74738342513462
C           9.89888927776802   -9.25339433664725   -5.66632560618532
S           9.76873619565990   -7.53800835729969   -5.83081228659609
C          10.70090462295029  -10.22736166532530   -6.25111359210518
C          10.38653267917783  -11.49422207652871   -5.79159682664036
S           9.08102421816939  -11.45686436026630   -4.59956561301056
C          10.89031575497832  -12.77404622681348   -6.11228111141692
C          11.83141897756476  -13.17412207099547   -7.01203482982828
C          12.65640782329228  -12.41660731448417   -7.94802215339419
O          12.69707866395867  -11.21462686643826   -8.10152398824965
N          13.44811798557303  -13.27493761871047   -8.70023627725517
C          13.32864915391307  -14.60413210116331   -8.44191309171130
C          13.98678485273392  -15.64031621077496   -9.05189506168570
C          14.92951296929970  -15.52811399049251  -10.08940074144140
N          15.70455043761149  -15.50559797057690  -10.93610056872603
C          13.72522746725577  -16.96560057906272   -8.64321545413769
N          13.51689689304388  -18.04466994010600   -8.31603532879969
S          12.17043456391208  -14.89491474922241   -7.16835723526581
C          14.33952113635819  -12.72972027614832   -9.69637627489920
H          -2.50959224182689    6.37396889070577   -0.10636312052593
H          -3.32613388117300    5.94871852044237   -1.62698410297038
H          -1.81685213060925    6.89643090852317   -1.66342124762877
H           1.93418233242058    4.33450907702194   -3.01509733932391
H           1.14138135399383    0.76562935599660   -1.51062091930026
H           5.81228993586307   -0.12775742250059   -4.28625575167636
H           7.35070987456199   -8.93152483221763   -3.47993774024954
H          11.46910459488348  -10.04020310386421   -6.97716125421559
H          10.42676284595896  -13.57730830709011   -5.54945104117441
H          14.22387700468929  -11.64607175925549   -9.66259531508682
H          14.07896485271187  -13.09473607859881  -10.69005065447667
H          15.37365871881915  -12.99494660180769   -9.47609901320846
