85
 SCF done       -189.867932859824          0.003241311783
C          10.89641802445909   -9.25978684805645  -11.24637082406408
C           9.93139119765600   -9.89163087547745  -11.98549655980219
C          10.14082795526065  -10.95083812458049  -12.88714757922046
N          10.24518198611269  -11.81688253333176  -13.63301160590087
C           8.58642564003645   -9.48065719760450  -11.86482433711837
N           7.49283985374975   -9.15230197644890  -11.76343971543596
N          12.23019868478430   -9.51209053785234  -11.22312239221997
C          12.87609486863093  -10.53206627311284  -12.01426680649066
C          12.98877509208938   -8.72041552578697  -10.36913721217342
O          14.18573154256443   -8.83293554979881  -10.24525398033986
C          12.13089018691680   -7.76870226359579   -9.66549619068615
S          10.46579934071738   -7.94934238260945  -10.16034195703470
C          12.62127240847219   -6.89981048607283   -8.74339608673864
C          11.90604702816335   -5.95915830130274   -7.97951337291390
C          12.44428445742497   -5.13731477463484   -6.99293360707634
C          11.47973944965890   -4.34368011321768   -6.38912088702507
C          10.18809782047064   -4.54746813248277   -6.92569961310801
S          10.16982705728490   -5.71941165202924   -8.16210503154121
C           9.27126828157000   -3.72093640603339   -6.23994160634039
C           9.97942359752581   -2.99491886437682   -5.25711135996472
C          11.38579642366387   -3.35629216023948   -5.32374562421203
C          12.39999165676836   -2.88048360100628   -4.54632950414077
C          12.18531762955132   -1.92499942911991   -3.52985233098909
N          12.01923374345826   -1.15047143438790   -2.70114208765833
C          13.73331136120831   -3.31373270222818   -4.70786784447143
N          14.81683684592417   -3.66572402443101   -4.83807778151061
C           9.15538365115944   -2.17362108486231   -4.50086151755839
C           7.82556431301680   -2.26114949875977   -4.89936448827955
S           7.59954212428001   -3.36636365956918   -6.24357026192321
C           6.71504080173474   -1.60088619253852   -4.30965010218461
C           5.41058807485055   -1.74168689118720   -4.83160993408685
C           4.26454564137767   -1.14267488810699   -4.21535626424405
N           3.04966819862179   -1.32408283711454   -4.76924107430524
C           2.93196896897888   -2.03125394828742   -5.84624396811955
C           4.06768113962282   -2.62625708271028   -6.45657275017628
N           5.24891623953721   -2.47537232093764   -5.95055486532505
F           3.95107469195525   -3.35084937025257   -7.56234015488844
F           1.71838060412071   -2.18238436844525   -6.36291441859823
C           4.35166369335320   -0.37862037262916   -3.03051063550057
C           5.66129599342490   -0.19633405550612   -2.52404888681838
C           6.81963879208841   -0.79069305139462   -3.15364119616332
N           7.94000012884872   -0.48590131019008   -2.49721152650784
S           7.59014282796898    0.44145757461652   -1.23902871327754
N           6.00306453773704    0.50925592465731   -1.44510210524894
C           3.19298515796520    0.13430045754912   -2.38982316571633
C           3.14748909879855    0.82407199056350   -1.18248201950775
C           1.84828129153762    1.14337669244960   -0.81595767288971
C           0.89031688785003    0.70288111996328   -1.75645659156699
S           1.59809732816275   -0.11100963731912   -3.08097940091267
C          -0.39617490836938    1.05768200645459   -1.29048935885266
C          -0.25234648078597    1.72196896189620   -0.04858731430234
C           1.16178207989113    1.79431395444371    0.28659409128306
C           1.72154902870999    2.33926052447155    1.40461493569065
C           0.93980348841258    2.93763686584584    2.41536207094229
N           0.30244693949465    3.42111054968511    3.23688256345955
C           3.11468159367636    2.33267732808548    1.62848263311106
N           4.24411332146906    2.32764694307616    1.82063788574941
C          -1.46927577015749    2.09190759582707    0.49299202857219
C          -2.54799417038288    1.71832127866296   -0.31569766094005
S          -2.01981593035054    0.89813092226171   -1.78100377134148
C          -3.88216962579288    1.97465043309013    0.04836205455087
C          -5.04458796070602    1.66979012638099   -0.59721829255752
C          -5.21860104859918    0.99566373215394   -1.86791496130089
O          -4.33660965506828    0.58891661308018   -2.60255065856173
N          -6.56089994711458    0.85650070534003   -2.17342923033909
C          -7.43992691124897    1.35721210079411   -1.26239398726991
C          -8.80905406023798    1.33783789832309   -1.32250285937173
C          -9.58431342673181    0.78517736969764   -2.35714956431107
N         -10.27138143755365    0.35342591317273   -3.16917545478436
C          -9.55928242081246    1.90660262568487   -0.27109230860822
N         -10.17403205100926    2.36548951449991    0.58090286414593
S          -6.60549530278778    2.07955992287088    0.09349813732544
C          -6.95192128855254    0.20014605647427   -3.39860070964795
H          12.73121041828415  -10.34660065639727  -13.07879197564451
H          12.48669269442244  -11.51966316842291  -11.76595907057204
H          13.93895886487244  -10.48623870839246  -11.77518930708864
H          13.68993377324157   -6.95434062569012   -8.57151660720491
H          13.48938182214999   -5.14642643490013   -6.74137900253665
H           9.46596866132103   -1.53879066230222   -3.69165653674651
H           4.03665215474992    1.05699971560412   -0.62622477386695
H          -1.60163769848514    2.60403262429109    1.42926525031222
H          -3.98918295783259    2.48903786961529    0.99680159981923
H          -6.03229210597943   -0.09046566221351   -3.90718520103252
H          -7.52398450076773    0.87643351589916   -4.03427929313625
H          -7.55045750287865   -0.68646876994489   -3.18830060283381
