87
 SCF done       -190.430158659467          0.000295419478
C          13.01202069430293    5.22458623026435  -12.83308999128002
C          12.37872710950622    6.33938184114711  -13.31391624914797
C          12.89778355543631    7.24150713668936  -14.26077335079675
N          13.26528287246290    8.01201611958693  -15.02800429833894
C          11.08609355785291    6.66046854369862  -12.84515137759351
N          10.03744557868509    6.92508340312368  -12.46497564729927
N          14.24709080353933    4.76136543177095  -13.15639728494143
C          15.12867054005121    5.39637930550861  -14.10691436403029
C          14.65558136193524    3.60354244403380  -12.50779013557275
O          15.72819512133491    3.07855414690224  -12.69264142711767
C          13.61220567200479    3.14084265572049  -11.59245118721456
S          12.22351411430758    4.19613926548515  -11.64708611370858
C          13.77646716053591    2.03528470826103  -10.82049381417965
C          12.87396246802479    1.48404581940967   -9.89223844886608
C          13.12176529188622    0.37171347124467   -9.09186951825648
C          12.05143228863971    0.07648438171810   -8.26147586118253
C          10.96391396777108    0.96540378087928   -8.42908140458247
S          11.27350266781708    2.16137645472959   -9.60431927282682
C           9.93134750674164    0.59865693598200   -7.53911033671478
C          10.36667010941635   -0.52371245010744   -6.79803901519542
C          11.70495468791656   -0.88942539726157   -7.23054121597551
C          12.47168664828701   -1.91642013983108   -6.76477936201317
C          13.76507487315869   -2.17405730086686   -7.26703269781260
N          14.81592991362417   -2.38368159305692   -7.67445032739826
C          12.02348553535592   -2.78853495747262   -5.74954847714279
N          11.66714722771240   -3.50023554454726   -4.92438987947981
C           9.42828016945503   -0.95396327586051   -5.87368700767319
C           8.27516411444045   -0.17512820618853   -5.90383175680302
S           8.35432803347708    1.10382855168564   -7.10453148214125
C           7.13651493581602   -0.32281828325665   -5.07453350592593
C           6.00849340691641    0.51918338062237   -5.22472421012215
C           4.83777164997708    0.43795232726656   -4.38718321128654
N           3.83104082341163    1.29908976275059   -4.59298334070998
C           3.91276385229876    2.18706412459681   -5.55276673290880
C           5.06545696675557    2.25110645050383   -6.40023983546877
N           6.06539680659807    1.42746099770663   -6.20548751219825
C           5.14212062349961    3.19596051028142   -7.45350220014224
N           5.18100255108355    3.96563496802673   -8.30027871828170
C           2.84908463808510    3.10550473123664   -5.75113567488283
N           2.02521339828327    3.87502449682025   -5.94882052947702
C           4.74932476718727   -0.51929559029884   -3.34319752446008
C           5.87356327690038   -1.36523190572486   -3.20322341486092
C           7.04142599542394   -1.28359543327398   -4.04332130725533
N           7.95411055924124   -2.19288770811990   -3.69857747562632
S           7.41487819750578   -3.05632596256474   -2.46306991492148
N           5.99322012394608   -2.32831001571787   -2.28878470055505
C           3.64444436907042   -0.64815216888299   -2.46133835875542
C           2.43677016486413    0.04384194898199   -2.47748870830854
C           1.60241026615864   -0.33747075172543   -1.43814532959246
C           2.17601957143612   -1.32876269014407   -0.61062242924050
S           3.73264629966846   -1.79990141039000   -1.13395838351437
C           1.26289886905213   -1.62729558105646    0.42141496015751
C           0.10498789582623   -0.83081884335172    0.25553236909739
C           0.28144304559807   -0.00176826667957   -0.92694996489955
C          -0.59834936027890    0.89186445587591   -1.45961308285684
C          -1.86519343670855    1.16197324706270   -0.89643007419469
N          -2.89780955357976    1.40507272022764   -0.46315962514213
C          -0.30087721151503    1.61072717774227   -2.63929425322369
N          -0.06475507024866    2.18550718605961   -3.60221067821697
C          -0.85461540225272   -1.04739488088675    1.23373667281788
C          -0.45185715996524   -2.00285725597363    2.16015063322539
S           1.15788478545038   -2.63745661418365    1.78592402259036
C          -1.06743704764321   -2.53696436015436    3.31036622915531
C          -2.28023906850937   -2.28933487074811    3.88278737221096
C          -3.36256301004043   -1.39155748780727    3.48895762898609
O          -3.40070167693049   -0.65200350755921    2.53109996122873
N          -4.41792597561691   -1.48207388310253    4.38844580734359
C          -4.26491451218381   -2.34478593832103    5.42595470643619
C          -5.14983380772571   -2.61007437308768    6.43853366933381
C          -6.41971795459052   -2.02800604655862    6.60352895114864
N          -7.46414157943207   -1.59236608653515    6.79604331498063
C          -4.80260898832885   -3.54713690150711    7.43510514831238
N          -4.52357486217349   -4.30691070528168    8.24727709104197
S          -2.71643156874689   -3.15158652727993    5.35091752646670
C          -5.59683751530221   -0.67447979697121    4.18083151648725
H          14.67002402685760    5.43468276821744  -15.09519412152289
H          16.03420696289631    4.79015206082383  -14.14608722074136
H          15.37880336776709    6.40838746119308  -13.78776259691688
H          14.72647204067078    1.52579871177545  -10.93333945019877
H          14.04818144132993   -0.17225903305222   -9.13028227046032
H           9.53976598619792   -1.77993355210184   -5.19555111012340
H           2.21230564804330    0.78408731453501   -3.22245126403048
H          -1.80544608507232   -0.54997813989383    1.29601897119134
H          -0.46241265376191   -3.27353663947960    3.82854069786292
H          -5.42400941597841   -0.09278771586455    3.27470954644837
H          -5.75756685482335   -0.00142964827407    5.02314205368993
H          -6.47762118778412   -1.30335998921468    4.05017118670797
