85
 SCF done       -162.156252117389          0.000637642313
C           7.16840421844953   -8.64022885269837    4.20731072886394
C           7.31332879719112   -8.39617926718818    5.54891538605327
C           7.42788891434783   -9.36802210293734    6.55814097257288
N           7.52928827108286  -10.11239057476360    7.42659356406100
C           7.36008361178417   -7.06252701326988    6.00503865770615
N           7.39807915154088   -5.97638224937783    6.37255916160667
N           7.10476230646104   -9.84054072605269    3.57834939997049
C           7.17937382288419  -11.11408492236671    4.25246979117352
C           6.96165753015609   -9.80164199372268    2.19419419680873
O           6.89314348518613  -10.79633003726477    1.50885836295615
C           6.91360389475766   -8.42202714985051    1.72531031483495
S           7.04063302634286   -7.31271002612049    3.07211698668832
C           6.80209024251244   -8.11913284813740    0.40467647677028
C           6.75810638117076   -6.84871041387137   -0.19842395996223
C           6.77155181932625   -5.57998520896030    0.37755818414746
C           6.73363652405371   -4.57278994237372   -0.56822737919330
C           6.69338216759674   -5.05664091264356   -1.88238634502711
S           6.69101474237133   -6.76387266763276   -1.95410565866162
C           6.68083050541583   -3.96398835627229   -2.77751628200712
C           6.70830255317480   -2.77594762742059   -2.03697444035520
C           6.73609873548684   -3.06237714145416   -0.55403280905766
C           8.00845653784753   -2.51309224869030    0.09699807509922
C           5.49003678656782   -2.51110048395938    0.14507699403222
C           6.71801878316552   -1.64743772846957   -2.84111836761623
C           6.70170191068417   -1.97789586304713   -4.18735564016713
S           6.66646692752815   -3.69892673256327   -4.47195740703492
C           6.73884107002654   -1.11040568227150   -5.31510710829891
N           6.74878318621615   -1.67589714642050   -6.51477636415309
N           6.81935645584753   -1.00371425269349   -7.61617822091267
C           6.88879291553502    0.32014040330610   -7.65900460226155
C           6.86256006887424    1.05688946952950   -6.43808461644503
C           6.78465563157816    0.31156968301223   -5.21710944487035
N           6.76926443466970    1.10050050453496   -4.14810801530753
S           6.84378379649020    2.63431450418056   -4.63579014560027
N           6.90170225855043    2.36756062099157   -6.22395097493467
C           7.00472376325438    0.92444606231301   -8.94222183251736
C           7.11905761902854    2.26990814690484   -9.25729138361331
C           7.24532117163071    2.46724987501701  -10.62278695738410
C           7.22386313406682    1.26664517756245  -11.34419889646862
S           7.04653432760986   -0.11503745230612  -10.34284805065690
C           7.37561534784060    1.55958357967366  -12.71673957344988
C           7.49771491391420    2.94711810542376  -12.88017515693960
C           7.41538660963762    3.65032565402662  -11.54603845705710
C           8.70561261802783    4.41709590581091  -11.24289016312588
C           6.20457856851843    4.58603645898444  -11.48652045751870
C           7.67174813259415    3.32866680789086  -14.19564506628810
C           7.68634607268032    2.24102284672639  -15.06578655561549
S           7.46751931242545    0.71676272462292  -14.19819048825523
C           7.85103230716821    2.14625379188462  -16.45875586932345
C           8.07854169599022    3.09971798759165  -17.41033590156710
C           8.22641806767283    4.54297287877157  -17.31793906322718
O           8.15222453314509    5.24429063830691  -16.32898437233968
N           8.48290650919781    5.08628102813804  -18.57321189899759
C           8.54164940427230    4.21807662075879  -19.61639042585565
C           8.78622601689091    4.50596188844482  -20.93563172314079
C           9.03577355205876    5.78030321995817  -21.47313146807358
N           9.24806732763622    6.79188884356450  -21.97376981351591
C           8.80622511724631    3.46053428122391  -21.88220770082597
N           8.82209183250141    2.61603915848689  -22.65815274630255
S           8.25943896816741    2.58142694393352  -19.08552522104254
C           8.66873899286837    6.51112040684097  -18.70632660936412
H           6.36308243700662  -11.22290826999297    4.96704148576812
H           8.13024453027210  -11.22113514535917    4.77521966771392
H           7.09657246417788  -11.88002097916552    3.48065529868316
H           6.75225950961573   -8.97827719152591   -0.25425950674514
H           6.80551229937645   -5.41806548803219    1.43913718538918
H           8.04284368495929   -2.79608784897130    1.14588678751091
H           8.02450886724117   -1.42878825200120    0.02432915899614
H           8.89015192042933   -2.90947539399907   -0.40124139042819
H           4.58935652280653   -2.90775244390757   -0.31771977266736
H           5.47184632666723   -1.42690505969650    0.07108241607773
H           5.49673607155941   -2.79221274600428    1.19503010562497
H           6.74057519292364   -0.62714827519791   -2.50465467231206
H           7.11075857194296    3.03481005536774   -8.50258771290958
H           8.65231079601473    4.85896090962343  -10.25123647585649
H           8.84722513712276    5.20748088638931  -11.97532019816894
H           9.56188938266169    3.74765209119217  -11.28160082537228
H           5.29055523828644    4.03681612166583  -11.70058389421048
H           6.31444084835806    5.38067778894143  -12.21984075272236
H           6.12313521532321    5.02704406083026  -10.49635354799131
H           7.78956347023821    4.33717886196948  -14.54441925884810
H           7.79705717494311    1.13190389270780  -16.83980092515868
H           8.55001563949505    6.93727176114078  -17.70965760880357
H           7.92387176816171    6.93727570636763  -19.37870654996562
H           9.66558955012904    6.73806836480217  -19.08528263272129
