95
 SCF done       -208.896848477461          0.000548616112
C          -3.62724760081628    0.80361010970420   -3.95241007704304
C          -4.14109906936509    0.86889484887208   -5.22044186301240
C          -4.08912577858386    2.02031315213290   -6.03655624460883
N          -4.07576870060676    2.91482540355450   -6.75517612518660
C          -4.82420359742452   -0.16743324778469   -5.89369020250540
N          -5.40685072077231   -0.94658154492728   -6.50382677615398
C          -3.01467332944849    1.91921896371092   -3.23612327964565
C          -2.73946892242137    1.51256909162320   -1.91972896816745
C          -2.16746999397991    2.35886652001206   -0.99131881971331
C          -1.87008064735563    3.64380041652419   -1.41946540189270
C          -2.12454016720540    4.07258316962033   -2.71479884203262
C          -2.70092470310571    3.21151392440500   -3.63551221410432
F          -1.31404935677381    4.50609439426431   -0.55539665599986
C          -3.14298063177090    0.10331227149603   -1.73280730130017
O          -3.02255354439366   -0.53771457013728   -0.71260723692189
C          -3.65858928851727   -0.33967857100660   -3.05169183739662
C          -3.99346826314424   -1.60777246391902   -3.44171172152602
C          -4.15060222404778   -2.79528834008736   -2.70006426735370
C          -4.20475326558322   -3.05397304531248   -1.33364249866262
C          -4.43193359289642   -4.39461482195305   -1.06516909668440
C          -4.54986045592771   -5.18638053552918   -2.23497675377208
S          -4.39964322326273   -4.26633370963565   -3.65448066176255
C          -4.76602584625019   -6.52861357484210   -1.85760923772810
C          -4.78823006248718   -6.59368191694243   -0.44616665960390
C          -4.59172000657607   -5.25690061067932    0.09446518403938
C          -4.59000317384058   -4.89885782500727    1.40955235408389
C          -4.76197916439038   -5.84892120185974    2.44014322637079
N          -4.90006962997240   -6.61544629398905    3.28143690657699
C          -4.44367795303941   -3.56336583160069    1.84585440133869
N          -4.34698027744107   -2.48854762137017    2.23115320413756
C          -5.00653863537838   -7.87738152352949    0.02763576153305
C          -5.15443095680284   -8.79586416721783   -1.00807879224320
S          -5.01526668762592   -8.05378012253746   -2.59293288732967
C          -5.41537177675978  -10.18302368801558   -0.87894327589828
C          -5.57942989060023  -11.00255531463952   -2.01945455849944
C          -5.90257919031589  -12.40115545156543   -1.92265832547455
N          -6.05501161843382  -13.12167320984497   -3.03825307930659
C          -5.90563448716818  -12.55599096187600   -4.21176445327754
C          -5.58182928064265  -11.16416973652766   -4.30820813667376
N          -5.43312716858211  -10.44147197651512   -3.22431199635227
C          -5.41085758823210  -10.55240239441015   -5.57518633282739
N          -5.27326725954882  -10.08315363931801   -6.61049112778816
C          -6.05922348902758  -13.34324928776271   -5.38014181463543
N          -6.17608525751873  -13.96019690586163   -6.33769131976152
C          -6.07016857525756  -13.05634192098184   -0.68066652034392
C          -5.86675632926793  -12.24929325542747    0.46381091867882
C          -5.54959371836315  -10.84162202936584    0.36659037854279
N          -5.41553336196469  -10.28987580312472    1.57328290985835
S          -5.65620793491805  -11.39957810150473    2.70246226607283
N          -5.94618277149046  -12.64299097239842    1.73546009027754
C          -6.43974398533264  -14.42293727013645   -0.62172176131370
C          -6.61741376818912  -15.19038541343644    0.52656110125048
C          -7.02164078567762  -16.48147988822182    0.22791327375635
C          -7.16008517312970  -16.70322767408542   -1.16060679039588
S          -6.76896278077824  -15.32378319114210   -2.09242575305856
C          -7.60956318915401  -18.02715924614130   -1.35147427748894
C          -7.74328432221207  -18.65470463997785   -0.09313398693963
C          -7.37408755257378  -17.70120734765630    0.93942461939612
C          -7.36279072168022  -17.90026350636727    2.28804487197528
C          -7.71483297627617  -19.13826787848274    2.86771941689359
N          -7.99149130205534  -20.14630292293577    3.33786137165933
C          -6.98922274126342  -16.88358231537234    3.19341531710482
N          -6.68383161913522  -16.06300332472999    3.93334420036168
C          -8.19248925612803  -19.96604672145740   -0.19127452337278
C          -8.45340266537958  -20.33436654384222   -1.50310548769192
S          -8.06028928410700  -19.04466909940992   -2.63868424724531
C          -8.90827235935749  -21.60390445132474   -1.93372773267852
C          -9.53419310629545  -21.94138456736872   -3.09217541954171
C         -10.19814004484322  -21.15340425179861   -4.11176929270267
C         -10.89042894407326  -19.98986184903284   -3.90855369144772
C         -11.62268586924393  -19.32482646391003   -4.91422101560075
N         -12.22123803353373  -18.73970847378778   -5.69873375006490
C         -11.02758662859221  -19.37893268537478   -2.64432067391264
N         -11.19199772864826  -18.87582475572484   -1.62580846098066
C         -10.26912495495869  -21.97850195664341   -5.31492821576390
C          -9.90770306732092  -23.29752315609023   -4.98019419828607
C          -9.52030165071604  -23.35944289893893   -3.55337890727027
O          -9.20871139095071  -24.32831473903154   -2.90505571611428
C          -9.92924664666459  -24.31595138578680   -5.91186661626829
C         -10.31452942397793  -23.97667472937288   -7.20079340672268
C         -10.66031166673852  -22.68118851965431   -7.56002173253238
C         -10.64329129638078  -21.66823670202461   -6.61391660598793
F         -10.35150363200202  -24.93378915782917   -8.13947435651550
H          -1.96475326720689    2.03545178289526    0.01715097290460
H          -1.86770930164289    5.08256838503437   -2.99297094951668
H          -2.88922829409426    3.55633427451971   -4.63853522236024
H          -4.16304198045952   -1.75000952484679   -4.50280237074391
H          -4.07286034237358   -2.28532471227981   -0.59370439047553
H          -5.06498700190338   -8.17137546012883    1.05939687862875
H          -6.45619345185653  -14.78709043877598    1.50940506299172
H          -8.36784360151853  -20.62609059493703    0.63908823391794
H          -8.66573613120862  -22.43495211754407   -1.27753122824737
H          -9.66204247352711  -25.32756396605262   -5.65143117377548
H         -10.94177224981989  -22.47722608559758   -8.58106346616951
H         -10.90554416989040  -20.66235989697633   -6.89920213834034
