95
 SCF done       -206.375968348098          0.000788124447
C           1.26795280838844   -0.53886431077129   -3.73864991350245
C           1.18369516329121   -0.68856355186962   -5.09684392720692
C           1.89532681415431    0.10172370989187   -6.02447877966585
N           2.45400797725280    0.70726841781374   -6.82311500656622
C           0.34935645979361   -1.62253085295114   -5.74845219065672
N          -0.32034386884291   -2.34445383824448   -6.33820747695159
C           2.03714049538739    0.48243029773892   -3.03432188976501
C           1.73845540791198    0.40479707647382   -1.66285091277646
C           2.31619068071763    1.24894330162577   -0.73602470567471
C           3.21304382420330    2.18848226392103   -1.22199819472096
C           3.52991828940404    2.28635218687559   -2.56970006450628
C           2.94213617700299    1.43146297969968   -3.48934435562219
F           3.80050332729271    3.03287124663537   -0.36088701562820
C           0.76588403060073   -0.68082911195728   -1.41756468208586
O           0.33245157706962   -1.02164289167747   -0.33970530094996
C           0.53614180774772   -1.30525401086326   -2.74652594687589
C          -0.04448811194723   -2.52502770081485   -2.95559860577930
C          -0.83605076226353   -3.24451007879895   -2.03408810924428
C          -1.63060001114766   -2.78011256086410   -0.99476492871171
C          -2.20912006487480   -3.81813275221974   -0.27917853658119
C          -1.86078578653018   -5.09747351296810   -0.77173424013329
S          -0.87102537793069   -5.00647335329140   -2.15265874448420
C          -2.40028011201651   -6.07874409827942    0.09243269023663
C          -3.09179056339720   -5.41636890583398    1.13250077411900
C          -3.02706309744504   -3.98061384656872    0.90856773626044
C          -3.61511452536748   -3.00215113674984    1.65364225954824
C          -4.38313479396546   -3.30137566409157    2.79934381710963
N          -5.00382649595554   -3.55039467282186    3.73059183102377
C          -3.52002708315207   -1.63329202768340    1.32051951809994
N          -3.47044401707511   -0.52020769271191    1.05236000209141
C          -3.58528359150773   -6.28782254285094    2.09058117966939
C          -3.27318057707188   -7.60851517420064    1.78637907606955
S          -2.38757762293314   -7.77977824071403    0.28083964869643
C          -3.52537424071240   -8.74223271662390    2.57508653164996
C          -3.19773631179883  -10.06321971472053    2.24743813483951
C          -3.48401170775217  -11.00138106199072    3.29729635919721
N          -3.17163128756670  -12.29226507336971    3.15945754922268
C          -2.61915124499034  -12.65383583235278    2.02207861109232
C          -2.22337041583696  -14.08219868388341    1.89307173327213
O          -2.26618084657613  -14.85536069367410    2.82329556361958
C          -1.74651577805338  -14.47567752001546    0.55440250923594
C          -1.54959137991083  -13.61083255693423   -0.44577268339857
C          -1.79373616223450  -12.16219784152486   -0.33294007221530
O          -1.54350548615861  -11.38633429349922   -1.23009601002015
C          -2.37569650569096  -11.72402378116513    0.96185456532790
N          -2.65665237727845  -10.44510807326830    1.09131195658978
C          -4.03344457055987  -10.38748956271587    4.43219835792006
S          -4.19997509607664   -8.67615769433572    4.16969841320831
C          -4.34843470791138  -10.98642945667506    5.66570629034923
C          -4.38346495766682  -12.34692087174527    5.95629904131150
C          -4.67219545994305  -12.57342070909223    7.29615436448174
C          -4.83572318983081  -11.38134004589559    8.03442337170334
S          -4.68342535304365   -9.98339838281081    7.07027352474563
C          -5.05395241323257  -11.71075881771841    9.38693336602292
C          -5.03887856203943  -13.11585446447489    9.52079997211636
C          -4.82934109989254  -13.70202636251982    8.20585182319538
C          -4.82441544316631  -15.02645028223568    7.88727179824116
C          -4.96789119082003  -16.02940783898006    8.87125372185659
N          -5.07032660538706  -16.84495231536567    9.67004944265191
C          -4.71741501712294  -15.49428333698499    6.55820870630387
N          -4.67289894719490  -15.89529418113346    5.48597762996545
C          -5.21624484611828  -13.52660581864952   10.83647789070901
C          -5.39147269252926  -12.45789760200434   11.70653367890323
S          -5.29260135727086  -10.91038381630249   10.86785540053319
C          -5.50423499929678  -12.54823042432946   13.11194118115534
C          -5.86205710741835  -11.59439527308748   14.01458992042820
C          -6.52051269465437  -10.31167687189269   13.87745542962950
C          -7.50921238592452  -10.00556899000690   12.98088454154282
C          -8.19412119665887   -8.77339106822089   12.95730929823686
N          -8.76349997782712   -7.77955177599919   12.88719822529476
C          -8.00570275828754  -10.93216854279666   12.03988095309440
N          -8.45192449019887  -11.67778596747191   11.29004949340378
C          -6.17036455856073   -9.52017619134938   15.05427046573288
C          -5.55411424230850  -10.36451168279934   15.99721703299564
C          -5.42155650617485  -11.72680559221693   15.43216037281463
O          -4.99682149059551  -12.71952423559480   15.97097204482855
C          -5.14752413223178   -9.90015871711577   17.23189405499402
C          -5.36475041046797   -8.55570250114522   17.49715515603533
C          -5.95744608800365   -7.69966432979012   16.57943886822879
C          -6.37064746480824   -8.17947111805281   15.34615029416282
F          -4.98334638340304   -8.05893615340567   18.68353490525271
H           2.07875908287232    1.18245178856458    0.31367867819780
H           4.23902149445199    3.03398492560485   -2.88845200784603
H           3.20054055544528    1.51171891090942   -4.53231601317017
H           0.15852393414390   -3.03545512538359   -3.88967926742100
H          -1.78094856327920   -1.73740461857589   -0.79019149980910
H          -4.12844644230518   -6.00856783105923    2.97562570109203
H          -1.53694460834272  -15.53023567134115    0.43686884929206
H          -1.17643216474035  -13.93727317935081   -1.40713532165449
H          -4.18709702179595  -13.09374731769249    5.20777745418038
H          -5.23783306100823  -14.54856615398737   11.16964003258787
H          -5.16314915114047  -13.48531571069111   13.54227017592393
H          -4.68371849965972  -10.54966465008047   17.95686992601823
H          -6.09053794133865   -6.66152247999836   16.84011947189504
H          -6.82407385443561   -7.50987302608399   14.63328502129930
