80
 SCF done       -209.417284045227          0.000381941820
C           3.97228889269777   -0.41888052342653    4.69630655201837
C           4.51710365148416   -0.36593827792179    3.31725936718973
S           4.23979533772665   -1.68389542484639    2.19276245013580
C           5.15228659707171   -0.87469778428730    0.96353810176369
C           5.52011818471242   -1.23727125968959   -0.32902288552637
C           5.17002810489768   -2.43601552821220   -0.98245226909800
S           4.10110024016162   -3.55260787838646   -0.15691086112066
C           4.15301277835565   -4.66052727802839   -1.45433944149978
C           4.94512366637045   -4.23319145216385   -2.48060171795990
C           5.53677055645702   -2.95458460570952   -2.23030420581979
C           6.41362779317954   -2.31363380305022   -3.17313380616622
O           6.90600259264373   -1.20271617208243   -3.02505160987883
C           6.69158743130505   -3.11617741446081   -4.38403802705919
C           7.53943029724304   -2.73723569449653   -5.39841517557401
C           8.35723697291661   -1.48596562003314   -5.49582515729787
F           7.61185680984858   -0.37992168144537   -5.55954610218830
F           9.21232637223256   -1.34492079542848   -4.47909261878856
F           9.10552475548862   -1.49901328381933   -6.61500464826564
S           7.62654352798831   -3.89427795832419   -6.66624000307936
C           6.51400093896951   -4.90806513485292   -5.83936963871324
C           6.11420697006088   -6.21488265263093   -6.45360799739635
F           6.74176483423575   -6.39464763534373   -7.63054842702697
F           6.43914336019115   -7.26223377627756   -5.69193633879831
F           4.80642195926614   -6.28491763663000   -6.71148014017649
C           6.09637496980241   -4.38152562305502   -4.64064722423178
C           5.15214249067704   -5.02286675956821   -3.69690494469089
O           4.61804568702192   -6.08829302044201   -3.90938639384312
S           6.49520104278256    0.04627104880107   -1.01978267830249
C           6.37103719862955    1.02442827095830    0.40807503013397
C           6.99536197824027    2.31593358849954    0.42240242874866
C           6.51573407875966    3.41561069349344    1.15589453071887
N           7.11194048902449    4.58196274851065    1.14322212069469
C           8.19662317974586    4.71713843479757    0.38133344320843
C           8.87678253407282    5.97522697327304    0.35522507813417
S           8.42787548377849    7.33551139142722    1.31146407423172
C           9.71513972300129    8.31968125707119    0.63962601214371
C           9.82966520088619    9.70830850914685    0.89909534520189
S          10.70990557502305   10.71258185383434   -0.23195875138014
C          10.40870701117027   12.11965098718723    0.67230850506017
C           9.68385454741769   11.87278280959797    1.80467734798746
C           9.32293833381978   10.49530965812657    1.93996753855281
C           8.53859156045066   10.01838576598769    3.05337896857292
O           8.06164283716546    8.89814487763656    3.14529931022829
C           8.31728941817163   11.03093447189027    4.11176674929461
C           7.72045095486394   10.78062914618346    5.32477314769025
C           7.22468013459684    9.46967649845649    5.85398245091766
F           6.17402767867428    8.99790797035909    5.18003778119141
F           8.16898059327404    8.52504022999435    5.85811524699748
F           6.82122078708406    9.60160980985342    7.13236330310219
S           7.58070926500973   12.18502181566448    6.30577536133767
C           8.32318866421160   13.13366924345189    5.08121537023719
C           8.53362882455636   14.59866273574834    5.31198257824315
F           8.09027322778643   14.95338889916235    6.53247622248546
F           9.82250710532955   14.94589723339328    5.26673925924425
F           7.87307390496764   15.36071274487307    4.43786046118517
C           8.66999937293785   12.40069692468130    3.97206920545455
C           9.34188536606373   12.92626125196906    2.76106432414631
O           9.59559349965271   14.09891983855220    2.59613844437039
C          10.49676215941922    7.56019620771770   -0.24861142519739
C          11.68782560600044    7.69254796373316   -1.01830764849052
F          12.45729163094303    8.79953598116592   -1.04611121976368
C          12.04468286709720    6.57787042137285   -1.71286706308880
C          13.22720478109895    6.42102110723035   -2.59614617929118
S          10.92791219811697    5.25419926912566   -1.45735439640940
C          10.00303452055804    6.24247648848175   -0.39346381396296
N           8.71066916486715    3.75425450292003   -0.39649597430621
C           8.12712397371689    2.58333155500601   -0.36941141051853
C           5.62828856681017    0.38648431828205    1.39475139206307
C           5.25243725981920    0.62179816501343    2.75103133335151
F           5.61086276920501    1.71894696341037    3.43774830275097
H           2.88291950895381   -0.43758907372456    4.67568180364543
H           4.30086114668920    0.45485148528429    5.25409784720595
H           4.31270109300161   -1.31856819847044    5.20705039785769
H           3.60503331509182   -5.58157892647992   -1.41244617843147
H           5.61277068680668    3.35829387829265    1.74570607606321
H          10.78425608306949   13.07274864746129    0.35418564613642
H          13.82753371705948    7.32736037700636   -2.57997790934644
H          12.91083190233555    6.22277957165241   -3.61952050614871
H          13.83718377341226    5.58073563316375   -2.26838653447873
H           8.56661793183239    1.80988065441323   -0.98724758635386
