107
 SCF done       -235.795475179263          0.000469164508
C           5.88000934805419   -6.70937725517242   -1.30783536312316
C           5.92469200351110   -7.83931509374809   -0.53484905700590
C           6.60197695563715   -9.02013672943113   -0.90326391340550
N           7.11874217565819  -10.01074317038815   -1.16411878251789
C           5.36974439269413   -7.91048914633861    0.76047410330977
N           4.96694285301946   -7.98572791799938    1.83250795154831
C           6.69248710930590   -6.47700582106807   -2.50074779640678
C           6.81208307622411   -5.08798659375040   -2.70313035711970
C           7.56766270446694   -4.57084719021818   -3.73244560265621
C           8.21598494135189   -5.46403806570923   -4.59302689698451
C           8.08526954038116   -6.85007333083549   -4.40701992914981
C           7.32528828945542   -7.36055102356858   -3.35672994070459
C           8.78977457871596   -7.76579068582945   -5.35032167772511
O           9.55083050318779   -7.39391312748733   -6.20567669888005
O           8.47832284898626   -9.04516881644070   -5.13228769491871
C           9.11957284525688   -9.99296438177106   -5.97530479065585
C           8.98422865806545   -4.91088389710081   -5.64968660759454
N           9.55769902314516   -4.33797121052094   -6.45923662362828
C           6.01335451051011   -4.36937680600015   -1.68077728709862
O           5.91992895442234   -3.17817691800710   -1.51352374722685
C           5.29242261436756   -5.43968084796112   -0.93824017164832
C           4.22316116726118   -5.11422928959458   -0.15894986769933
C           3.16209885231245   -5.93054955068339    0.28894887802303
C           2.28857102407912   -5.62788669286222    1.32598633422890
C           1.32934965599714   -6.61407465871036    1.51228810392231
C           1.43868826592104   -7.66684201157430    0.57641315293460
S           2.72885887779243   -7.44325787898167   -0.50927461891542
C           0.43636742975559   -8.62303564272933    0.84164515698700
C          -0.30930373081627   -8.18575561228681    1.95890781374331
C           0.22023663006005   -6.90561169074595    2.40628512093754
C          -0.22872563363504   -6.13877883346655    3.43945111064431
C          -1.32595630926545   -6.51750110045522    4.24392210660815
N          -2.21868899132812   -6.80852418161972    4.90078465926604
C           0.36721842449773   -4.90123817665355    3.76630649785476
N           0.84364669884918   -3.89271549294163    4.03010772184628
C          -1.30293560525446   -9.08117448844102    2.32503388311974
C          -1.32912021167016  -10.20038536858048    1.49765875465832
S          -0.10427312758135  -10.12616268240643    0.23911538815737
C          -2.17303407492370  -11.34191937688962    1.57442526024559
C          -3.14043874708680  -11.56504581112863    2.58531411853282
C          -3.91856224845008  -12.77028932111537    2.62294376933944
N          -4.81767090523581  -12.95039976086760    3.61204774194745
C          -4.97431244009744  -12.03956704940071    4.51586687305185
C          -4.20498458560323  -10.84515029809443    4.47781838664803
N          -3.33253772472325  -10.63736280101147    3.54671604242089
F          -4.36206624426098   -9.90856088288419    5.40165821308869
F          -5.86878890660765  -12.25641454807077    5.47084278911393
C          -3.79359322908294  -13.80964846829928    1.67232553610693
C          -2.85017663559597  -13.57710420816582    0.64546110665168
C          -2.06260636149772  -12.37138370013723    0.61177802236131
N          -1.22695062105204  -12.35927880954302   -0.42797045619135
S          -1.40930012792861  -13.71116784073372   -1.27454483808651
N          -2.54765634966118  -14.38270892520877   -0.37438983076618
C          -4.54611605002704  -15.00896773801058    1.77213929180987
C          -4.49129563094702  -16.09016505034462    0.89690341562151
C          -5.31379937930688  -17.12868607871411    1.30308878857803
C          -6.00829234563112  -16.83901191753348    2.49942954719515
S          -5.64857872349095  -15.28070135466575    3.10744272153328
C          -6.78228682184904  -17.96850901453631    2.84398549502704
C          -6.57655066381627  -18.97812248758344    1.87114619812721
C          -5.66772157915012  -18.46745028847660    0.85818894726913
C          -5.24711988662740  -19.09527438112893   -0.27634432250441
C          -5.69644781492469  -20.38157466109361   -0.64852395872508
N          -6.06759216892178  -21.41350565363379   -0.98092306612904
C          -4.34785045562458  -18.48382095995175   -1.17683211593721
N          -3.61603933536615  -17.99225711173216   -1.90975341004150
C          -7.24359861985102  -20.15810589562817    2.15793116141691
C          -7.96928704776664  -20.07457766196526    3.34244729122110
S          -7.83376586006116  -18.47064236370276    4.08004015175749
C          -8.78751307845949  -21.00473790331892    4.01051805191736
C          -8.85603924010672  -22.36591771738814    3.87275943913682
C          -9.80977847188227  -23.21176305567040    4.56885471349416
C         -10.95770940919926  -22.81077663390929    5.19919187198816
C         -11.85519568137166  -23.68881351490056    5.84556876870553
N         -12.62113759410956  -24.34372418526639    6.39403901940669
C         -11.42954245041569  -21.48145628964102    5.26536690877368
N         -11.88798680440091  -20.43175129607380    5.34299977342733
C          -9.37602356629841  -24.59788054139636    4.40795637250605
C          -8.24069244408669  -24.62176849823731    3.57851250588683
C          -7.87699503097512  -23.24159552510246    3.18462008567104
O          -6.93176101642278  -22.92779969489693    2.49682056151592
C          -7.60854957207242  -25.79751186785276    3.23851906365835
C          -8.12323681429667  -26.99537856055008    3.74522167923869
C          -9.25127899746482  -26.98111421126940    4.58207967915850
C          -9.88159973466278  -25.78366027791994    4.91425198281874
C          -9.76305481619110  -28.28023431337055    5.10630297474159
O          -9.31113630644570  -29.35311119464350    4.79882544615718
O         -10.77799789793195  -28.11336236689160    5.95607956636822
C         -11.33252707682945  -29.30151123570836    6.50415831983482
C          -7.45650795247670  -28.19581929407362    3.38935881155266
N          -6.82261357664540  -29.08142057087017    3.03365717088900
H           7.65905727628075   -3.50417765671493   -3.87100009181811
H           7.23996860842552   -8.42853517389478   -3.24097143755413
H          10.20398478281228   -9.90521314133255   -5.88628123724448
H           8.83847974266564   -9.82386236561205   -7.01667550117450
H           8.78362586580467  -10.97014928326687   -5.63906809209607
H           4.13712700619056   -4.06045023943743    0.09031952861700
H           2.39158992989566   -4.74059635711148    1.92439505813438
H          -1.98427968535334   -8.96195255369058    3.14614153906451
H          -3.86461136981016  -16.08546044547891    0.02433306523013
H          -7.21167006041462  -21.04534891962188    1.55375590087855
H          -9.42143462731016  -20.56049382051726    4.76944886448729
H          -6.73994791563004  -25.79219633436406    2.59747973537766
H         -10.74220244408625  -25.81154872864150    5.56144690574646
H         -10.58178054956528  -29.83154230614604    7.09387096367523
H         -11.67985961895785  -29.96003635419507    5.70558992846704
H         -12.16153919123295  -28.98445177924058    7.13124391430032
