109
 SCF done       -236.365604443774          0.000874054928
C          -7.26132326246125   -2.93586940706063   -1.97561376256711
C          -7.71501261136433   -4.15969681888556   -2.38925240255912
C          -9.03208136907122   -4.62196195741395   -2.18285724691812
N         -10.08576167456795   -5.04971715835284   -2.03342810888503
C          -6.93942920054045   -5.05583043960351   -3.15498669144527
N          -6.34866104377284   -5.79051457840673   -3.80949429015893
C          -8.10334646219154   -1.86576624495152   -1.44476167737957
C          -7.45366889294257   -0.63277062753804   -1.65138578250413
C          -8.03995778820321    0.56099462293313   -1.29144556525880
C          -9.30754074449135    0.52511265495627   -0.69951314859836
C          -9.95041981918152   -0.70274745475080   -0.47200588203645
C          -9.35077473447952   -1.90270914504475   -0.84739852994272
C         -11.30016586762207   -0.69500114487859    0.16462068349389
O         -11.95164771827914    0.30115813150042    0.34382118741518
O         -11.69650219190324   -1.92148621197970    0.50745307547919
C         -12.98104740828228   -2.01540638128568    1.10920446813605
C          -9.89190078825213    1.76396406584515   -0.32985041872205
N         -10.24159993872846    2.82237829043588   -0.06587590911626
C          -6.12469072467010   -0.87096004456150   -2.26354205685580
O          -5.31629347196282   -0.05407008714788   -2.62956630231285
C          -5.96914930061324   -2.35306095825183   -2.27319687257003
C          -4.73853505506890   -2.90269629017824   -2.46207631113823
C          -4.28628251888848   -4.19820042664424   -2.12047854033241
C          -3.18732237301374   -4.84943431084694   -2.66383315396920
C          -2.99829619714563   -6.10992958673809   -2.11176774318713
C          -3.93284523361480   -6.40693571787130   -1.09417981000351
S          -5.04878426222684   -5.14780177736116   -0.84493736183185
C          -3.68124381087891   -7.70395398853154   -0.60047160629063
C          -2.59106439762618   -8.24396048697771   -1.31956877244259
C          -2.12200168280853   -7.25698102064712   -2.28091769597688
C          -1.08478965402215   -7.38819376630882   -3.15584001273025
C          -0.31264305163545   -8.56759408689273   -3.23052289629448
N           0.31678136543664   -9.52351865383651   -3.29422274744969
C          -0.71006075320382   -6.35110581702528   -4.03721073326100
N          -0.40169874302198   -5.50552235574878   -4.74675998790177
C          -2.29048128763149   -9.54176786571280   -0.93956615505276
C          -3.13711852006452   -9.99646650984610    0.06869065871029
S          -4.31163361446034   -8.78958715865912    0.56159160319115
C          -3.14192462596866  -11.28807609669450    0.65001077204462
C          -4.04375785561398  -11.61562741204781    1.69150430709135
C          -4.14241135425410  -12.93002076950137    2.27436129727248
N          -5.05297741198371  -13.14794303577338    3.23425092211531
C          -5.82682281568039  -12.17239143008853    3.63954202690922
C          -5.71248202606662  -10.86029423166559    3.07615193707817
N          -4.83742226891779  -10.63169434863136    2.12892035412084
C          -6.53439629562597   -9.79747649384309    3.52659083099929
N          -7.20754391553614   -8.95143951226905    3.90344796268021
C          -6.80109757252018  -12.42095204533694    4.64144168817667
N          -7.60918097816170  -12.56940058285754    5.43816354411754
C          -3.32015289603401  -13.99437971025018    1.82233910882369
C          -2.40476531138179  -13.65810431720934    0.79923414623108
C          -2.30077729240739  -12.34018152846130    0.22554368272876
N          -1.36217845305002  -12.29421772121648   -0.72127325345615
S          -0.68379820817955  -13.73465671867845   -0.87784007506789
N          -1.53945329818543  -14.50573615041018    0.24064459985028
C          -3.40454791868368  -15.32948880176425    2.29883314589671
C          -4.17206431367785  -15.82540590214117    3.34864592351613
C          -4.04651453632138  -17.19916679862183    3.48144292357219
C          -3.17768543609892  -17.76657698453367    2.52175264088047
S          -2.49119440807064  -16.59385508625266    1.48636301574716
C          -3.16802070993498  -19.16573528671974    2.70387996276340
C          -4.03354566509593  -19.49137009865809    3.77724512884909
C          -4.57993468952314  -18.25968561188880    4.32296112385030
C          -5.38645963303840  -18.11717357036837    5.41198189375454
C          -5.80731940756948  -19.21293511323559    6.19757537023013
N          -6.14081152206121  -20.08720994969903    6.85900345750265
C          -5.81598180223395  -16.84644313354694    5.85552862360816
N          -6.15074956329495  -15.81303804959102    6.22065249487124
C          -4.15002681413295  -20.85539920964003    3.99116230071613
C          -3.38264172173967  -21.59370127787358    3.09563310596867
S          -2.47278866732104  -20.54576522131529    1.99634919355752
C          -3.18712233304980  -22.97948131228640    2.94134042961573
C          -3.92904591411644  -24.02754585259541    3.41720287948059
C          -3.57033977656047  -25.42672404258201    3.25319733886411
C          -2.35417003813160  -25.92473842372755    2.86992106366226
C          -2.06787543000602  -27.29997866767253    2.71563930115661
N          -1.76330857582739  -28.39317336452957    2.54992417188714
C          -1.20548428718750  -25.15202962689346    2.59054713768448
N          -0.22622367155887  -24.59469345454100    2.37039373499644
C          -4.72761490122996  -26.23152488056896    3.63984076561355
C          -5.74822619184468  -25.37014576542685    4.07981329950959
C          -5.29630618548313  -23.96398273930167    3.98711601989936
O          -5.95684133743045  -22.98904794692229    4.26704153871870
C          -6.96554855520544  -25.84119218176318    4.52003941548041
C          -7.18526018971650  -27.22259811400065    4.51147061288315
C          -6.17635225068575  -28.09130301535855    4.06510681390319
C          -4.94350729401113  -27.59974544713677    3.64045445152021
C          -6.36345841130094  -29.57401146437279    4.03946803912603
O          -5.44999596466169  -30.35752051147996    4.03442590328412
O          -7.65061550416401  -29.91282681814944    4.01259637179072
C          -7.94651833473932  -31.30306807299847    4.01506469067018
C          -8.43372486041880  -27.68821954668406    4.99405725412517
N          -9.45721205047844  -27.97205942766459    5.42345807185395
H          -7.53578907242627    1.49998941698959   -1.46298501189127
H          -9.86566993963408   -2.82980621513198   -0.65574203949737
H         -13.74099955188720   -1.60118250629146    0.44406184297988
H         -12.99873582216179   -1.46204477825341    2.05015578949276
H         -13.15550435577692   -3.07394955462367    1.28179934400018
H          -3.98605409607271   -2.23306514994332   -2.86839089713909
H          -2.59482336479981   -4.42123436078505   -3.45223278285323
H          -1.51485288876184  -10.16012118190848   -1.35282314992237
H          -4.78784856804751  -15.19124401475989    3.95842325880639
H          -4.76286768456891  -21.30910861680935    4.74741532178392
H          -2.33517628851137  -23.23003447400047    2.31987664149267
H          -7.72796034781487  -25.15889280948725    4.86478394826034
H          -4.19757659958330  -28.31046283788979    3.32060332430398
H          -7.37175946575389  -31.81030614558329    4.79193443224488
H          -7.69739936978308  -31.74092643384220    3.04644390438056
H          -9.01310635137418  -31.38074674263653    4.20798912538797
