107
 SCF done       -227.347907326911          0.000511411020
C          -0.68310097071149   -4.85825442175704   -5.61820089935914
C          -2.01899731817380   -5.06251778661739   -5.39690404177496
C          -2.90286714006892   -5.59800297110383   -6.35665518824867
N          -3.66204413711904   -6.03459322443806   -7.09748334673499
C          -2.66969582780172   -4.65457660990938   -4.21323054617787
N          -3.22848717990833   -4.29723993549416   -3.27671328459004
C          -0.01966368961340   -4.97869553765885   -6.91523374008255
C           1.13313010037801   -4.16952003963094   -6.90721791577651
C           1.94379596320959   -4.05740294856734   -8.01527201337932
C           1.60307296136004   -4.78033949715021   -9.16467548854393
C           0.46687529652845   -5.60464289018418   -9.17058168799515
C          -0.34690458500568   -5.70675492534214   -8.04453049830974
C           0.09878687755203   -6.43367324000067  -10.35821368478993
O          -0.51624827568096   -7.46554395111246  -10.27752697850087
O           0.52962679630230   -5.89321233154135  -11.49474925186579
C           0.26209665082458   -6.61422747845696  -12.69035004201116
C           2.46856014694220   -4.68475582589847  -10.28259904032615
N           3.23203989560559   -4.57448043912125  -11.12972690948810
C           1.29923215619656   -3.56006423288395   -5.56421010795570
O           2.14330176837054   -2.77505761339701   -5.20597944648321
C           0.23886218739017   -4.18541859389020   -4.73006552763608
C           0.33621713551901   -4.13882782454813   -3.37010448990392
C          -0.23610668218704   -4.98998441141746   -2.40415909315849
C          -0.24119720962999   -4.76820408218033   -1.03063490273702
C          -0.80113426188284   -5.82389468176272   -0.32652521528097
C          -1.20523226610045   -6.88824435200719   -1.16615995808100
S          -0.90469014235986   -6.57304092522266   -2.80907307566290
C          -1.73989090765428   -7.92475417029008   -0.37456031032370
C          -1.67888049773026   -7.52081752279457    0.97764519954955
C          -1.09028365586321   -6.19167333639274    1.04990495182026
C          -0.85460435060874   -5.45408375265676    2.17212000701275
C          -1.17661577709079   -5.92615010283493    3.46288756045598
N          -1.43235849092785   -6.30379994608531    4.51461360300572
C          -0.26382393903549   -4.17338917231072    2.11702098137588
N           0.22219707919903   -3.13616586670228    2.07410465370361
C          -2.17885584811207   -8.48009904445026    1.84459737512853
C          -2.62567962759012   -9.61031504779351    1.16572964585019
S          -2.42869401275339   -9.48143455701406   -0.57103040089298
C          -3.18149135649859  -10.78320105943986    1.73505146360210
C          -3.61800021307707  -11.84592632993607    0.90762288503608
C          -4.16693148715424  -13.05299852566005    1.43933672045460
N          -4.56624166009626  -14.02533845470122    0.60228362591492
C          -4.44587088133218  -13.85020149279558   -0.68459784631369
C          -3.90135809428637  -12.66054528143237   -1.20921706073182
N          -3.50371830930795  -11.69881501703434   -0.42298835995510
C          -4.30320462736022  -13.27371565686176    2.83115581506791
C          -3.88196665086638  -12.21276934061742    3.66338197286895
C          -3.33292572012670  -10.98731144256012    3.12451132255624
N          -3.00334174629530  -10.13333194959297    4.09621547562300
S          -3.34246541520694  -10.78424842893880    5.51891817231411
N          -3.92221950781560  -12.18198025944427    4.99735385160826
C          -4.82188722532675  -14.49948994856521    3.31864452552953
C          -4.98463806751229  -14.86737120330820    4.65090516034081
C          -5.50410771501464  -16.14682785146648    4.77463350581870
C          -5.74362295275116  -16.76014604652520    3.52489453247186
S          -5.32160472352545  -15.75447084272290    2.20191371742764
C          -6.26167027833998  -18.05010068640523    3.75920383249401
C          -6.35448121176104  -18.26331320790235    5.15882091198462
C          -5.87016700664612  -17.07141669674158    5.83737391985624
C          -5.75685692655741  -16.86063341829748    7.17911339025560
C          -6.10125020381522  -17.83072928667557    8.14644212297339
N          -6.35816187259971  -18.60024978997248    8.95571424115739
C          -5.26177750203668  -15.64614679417828    7.70294803327445
N          -4.85995847238457  -14.66343612096061    8.13555769409444
C          -6.86307122417266  -19.50801860563189    5.48954222349372
C          -7.16413234002207  -20.26978042631296    4.36224808243788
S          -6.79202115308805  -19.39189163296528    2.86575336180491
C          -7.65772251433269  -21.57292102740339    4.18353461363300
C          -8.10780461510578  -22.51160936352882    5.07670044283424
C          -8.52632859476231  -23.85034715511643    4.69456760414090
C          -8.41060561352946  -24.44578572691886    3.46541847515187
C          -8.83732741887117  -25.76108993317851    3.17656565891112
N          -9.15749933580997  -26.81735204546504    2.86217770872284
C          -7.83961696154858  -23.87352559413193    2.30785599539853
N          -7.38650755273531  -23.49724384528754    1.32165628411133
C          -9.06367746151928  -24.50574458420478    5.88636156725671
C          -8.94459720590586  -23.62803569261168    6.97769695988429
C          -8.33699454565174  -22.35397761439010    6.53067034847887
O          -8.11672212777571  -21.39509117584567    7.23682436991600
C          -9.36009945083668  -23.97396173411494    8.24462267347917
C          -9.91858973149217  -25.24235442147819    8.43401837198821
C         -10.04744719329972  -26.12509883725753    7.34912527129867
C          -9.62036184515271  -25.75996624736082    6.07405494200964
C         -10.65387977016558  -27.46571947869695    7.59039234886434
O         -11.05665956315671  -27.83874186623514    8.66221345001230
O         -10.69763695187174  -28.20369692529390    6.47924255563426
C         -11.26012860429738  -29.50138623922540    6.61498510101535
C         -10.33858446342240  -25.58390328107951    9.74503496152004
N         -10.63167598097643  -25.72996355770521   10.84300572625386
H           2.82387041097393   -3.43241485236951   -7.99600246652655
H          -1.19998232042270   -6.36640626235183   -8.08307362479958
H           0.90889387607260   -6.18478159277799  -13.45077678026943
H          -0.78716938861767   -6.49865090494554  -12.96886813214158
H           0.47780026405116   -7.67463959831247  -12.54806824348350
H           1.03157504160941   -3.39996095540944   -2.98271718120554
H           0.13347071055261   -3.85986283985402   -0.59390087960745
H          -2.23335049005597   -8.40270928142248    2.91500415249894
H          -4.78143865396628  -14.65506692192068   -1.32224923447545
H          -3.79432583072131  -12.50058844357812   -2.27219813745769
H          -4.72355394774825  -14.20701983448410    5.45729228163545
H          -7.02530971177221  -19.87066444448572    6.48903054381612
H          -7.68244566064863  -21.86849833292105    3.14121267810952
H          -9.25524112625062  -23.28306353034647    9.06750123627458
H          -9.73838871103623  -26.46392258200418    5.26773567791719
H         -11.19347173167096  -29.96136034037772    5.63273576618242
H         -12.30022001550295  -29.43053360504488    6.93934459634059
H         -10.70156888932167  -30.08050024287536    7.35291813088412
