90
 SCF done       -173.342337195198          0.000571127224
C           9.67460293268258   -2.03548004548230    6.36555877738467
O           9.86247059012557   -1.73162860588716    4.99169438608623
C           9.64482249555808   -2.73745298072353    4.13557188383261
O           9.30877087532161   -3.84442754509007    4.47779693067878
C           9.86497635657137   -2.33357365551063    2.72695920873068
C          10.22846035906618   -1.02702943096348    2.40068534391597
C          10.43788437862870   -0.70061623962685    1.07520696575311
C          10.28899787543302   -1.68269083616324    0.06564473545121
C           9.91526724690114   -2.97929100077662    0.37916629009229
C           9.70152454641241   -3.30206025721315    1.71784154032891
C           9.32057414928711   -4.63720381449212    2.00426272390122
N           9.01885840510102   -5.74082570045566    2.07749072676697
C          10.59864632875210   -1.10151447143667   -1.21139798664091
O          10.56995968294139   -1.88845505405541   -2.29322110612702
C          10.94532296668811    0.26380460233654   -1.02737688888862
C          11.56889869140376    1.23815338114692   -1.83506319799776
C          11.76198768901823    1.24091777370072   -3.21229436318168
C          12.82448281861009    1.86632607014687   -3.87602114465521
C          13.28883970550023    1.31535354070005   -5.06357830817215
C          12.83477507890620    0.09659264225209   -5.57095503212803
C          13.50772288722054   -0.51902089340891   -6.69263477307672
C          14.90246242241319   -0.51151422897354   -6.83602387476480
N          15.51880239811634   -1.05658991924754   -7.85622493792327
C          14.78776701110933   -1.65007900210998   -8.80157712507583
C          15.43195969855597   -2.24923086176381   -9.95915399329080
C          14.65430429381743   -2.48008316157417  -11.07853961860146
C          15.19510460783989   -2.96656533571410  -12.26457804091036
C          16.54886371119512   -3.23630780155173  -12.40121225224004
C          17.03241379365221   -3.53861532670433  -13.70909820006898
C          18.24538121205894   -3.29946765966300  -14.28647057642296
C          18.60182562312676   -4.00037118014688  -15.54568079493261
O          17.86513658601860   -4.63102274051248  -16.26764259801849
C          20.06726584789097   -3.81372378756429  -15.68996992844466
C          20.92172138129898   -4.36367696308494  -16.61872796631348
C          22.29015481268302   -4.08711239454737  -16.51093406328856
C          23.16001282315408   -4.69621875060502  -17.44781594365913
N          23.79519944132422   -5.24919201860367  -18.22506425829933
C          22.76424970314918   -3.27344449880031  -15.47002286404154
C          24.22108631213830   -3.00437492845321  -15.28516262021013
O          24.72007509917030   -2.76563517515079  -14.21543690085170
O          24.88836890522144   -3.06179604748951  -16.43578466733858
C          26.29346862601149   -2.85936080391977  -16.37218088901382
C          21.88777132099770   -2.71590774989034  -14.54182104935789
C          20.53325972784011   -2.97662264240701  -14.65706430153641
C          19.39045259833767   -2.52532258573091  -13.86649834488063
C          19.38551396627550   -1.45332567822487  -13.01001367112363
C          18.20560761258514   -0.84469948824154  -12.53438738671590
N          17.27635510630116   -0.26914882226759  -12.18476884967096
C          20.54201282203487   -0.75442804954996  -12.61060356134150
N          21.45008510181757   -0.16962034973419  -12.22213232846057
C          17.38431608773810   -3.15003736777625  -11.23078015388597
C          16.82252281823958   -2.58460899141100   -9.99247507818177
C          17.72755395230497   -2.39593720508719   -8.97019993439589
Si         19.10431353508514   -3.58253231180709   -9.34491460460751
C          18.71143989248494   -3.49645822649984  -11.16794724097944
N          13.45112751061208   -1.72121048506664   -8.75182370658491
C          12.83319471763992   -1.17020451105733   -7.73831974182039
C          11.69800336371061   -0.52404105556714   -4.96340778648034
C          10.97814452708628    0.31254055624610   -3.98789493124711
C           9.66292845883678    0.06135117920509   -3.77031623901752
Si          9.82993588381562   -1.81076610837264   -3.78561870273880
C          11.12382592677555   -1.75008726333571   -5.15250790618168
C          10.78823439074747    0.53959392141562    0.41018983567400
C          10.83326176097747    1.77262235355633    1.00791113335115
C          10.69361935629513    1.97507454408502    2.39802936050184
N          10.60292948488694    2.21311817081407    3.51701976580109
C          10.95877423531178    3.00932406698785    0.33931170841956
N          11.00870901860245    4.05713662287243   -0.12829080697759
H           9.82487149335272   -1.10305066392886    6.90315673805146
H          10.39725700900568   -2.78769253189067    6.68887135000775
H           8.66766184942846   -2.42247335809977    6.53436893420319
H          10.34600848462757   -0.30716780589341    3.19330290518767
H           9.79229065139724   -3.72653999007616   -0.39024299018049
H          12.11278400172071    2.00042894773778   -1.29089625848725
H          13.33174521853983    2.70841467979165   -3.43118140487047
H          14.11255246693985    1.79922477786411   -5.56876023944987
H          15.53971911890104   -0.06913645327896   -6.07967246486072
H          13.60766614342539   -2.22256009886723  -11.03632721901238
H          14.55871117796857   -3.04383109615198  -13.13426472512200
H          16.33105446870033   -4.05543847563883  -14.35849104033480
H          20.54675216047890   -5.00030085587972  -17.40592860460781
H          26.68847225905340   -3.19666204604561  -17.32675629168918
H          26.72071840376893   -3.43425414097946  -15.54855855734497
H          26.51237272340866   -1.80091344417125  -16.21794216290564
H          22.29612369290795   -2.10846139291813  -13.74920463141510
H          17.39489029741780   -2.04080673366051   -8.01063169367812
H          19.18716565343462   -4.05542154897201  -11.95751513378197
H          11.75100304041947   -1.21096694225562   -7.76051297663664
H           9.08560433300851    0.64835885919253   -3.07536151868180
H          11.50905180408323   -2.52493710123468   -5.78684209060525
