110
 SCF done       -243.420507508970          0.000504531920
C          11.52733954560856    4.57923164210000    4.96271973005947
C          12.19532336312793    4.72958380330582    3.77908777394041
C          13.39023249229913    4.04788894624182    3.45737819844275
N          14.35457932473096    3.50776303045494    3.15287752458763
C          11.82405022689592    5.65801563757686    2.78536783507928
N          11.59200801922916    6.43767733212013    1.97471565964832
C          12.03481355153400    3.87665609637125    6.13893128993653
C          11.36980578020271    4.36163930008325    7.28233360336919
C          11.68876748762578    3.91686445829177    8.55087632343470
C          12.69662904222855    2.96872636951397    8.68099158432043
C          13.35152479183239    2.47362950738394    7.54809582751283
C          13.02702532533134    2.92042507405447    6.26889545053062
C          14.44833396628032    1.48592408533923    7.76060389746987
O          15.01174294920294    1.33986734460619    8.81698687318456
O          14.73540948424652    0.80117852405891    6.65788415220603
C          15.78117664331695   -0.15602622189359    6.77044311161417
C          13.04270399642816    2.41124184532745   10.03641550710096
O          12.59364801269176    1.37996779493695   10.45720676234950
O          13.82718141772953    3.24549274098163   10.70730060932057
C          14.27849641368513    2.78840626600534   11.97728189916938
C          10.34837675119124    5.35435015947340    6.88015593107683
O           9.63038888008794    6.01726652575114    7.58673645356486
C          10.35541268852421    5.32648363703527    5.38785309202693
C           9.33756110973202    5.87323391748297    4.68379366274517
C           9.02276328618055    5.64629703098486    3.30988806196982
C           8.57541844001678    6.56968487897997    2.39783337117647
C           8.44624908776838    6.06815575637090    1.09184795378100
C           7.98874819897757    6.91006828888473   -0.04816619844131
C           8.72754573945238    4.71876725214885    1.03073590011369
S           9.18986257661127    4.07710121076525    2.57429997800317
C           8.60116443539798    3.86288284729842   -0.13083398044060
C           7.79064628487354    2.64128526058455    0.01250518143612
C           6.52835780977257    2.66209457827425    0.60541937830994
C           5.79334149612261    1.49838191381014    0.79056366550838
C           6.33201257391123    0.27216421890021    0.40853739119723
C           7.60036894236950    0.22187765701542   -0.16307145382067
C           8.30738579228832    1.40057013835084   -0.36812244631673
F           9.52502798379129    1.33347746355218   -0.91044503509585
F           8.13675918201288   -0.95018015471709   -0.48937130345254
F           5.63918191343428   -0.84757222923470    0.60197329834281
F           4.57995140433392    1.55100307159145    1.34174531359986
F           5.99891418487947    3.83153655384249    0.98083925046151
C           9.20387911005217    4.17229115786418   -1.30979320376950
C          10.34624495784662    5.10004639366755   -1.36886302584774
C          11.45933489545609    4.90934605278180   -0.54774273048305
C          12.58733261529171    5.71617625814851   -0.64376167882829
C          12.61167333421818    6.75888677570241   -1.56600508457649
C          11.51483697460942    6.96783914537954   -2.39849293747450
C          10.40751582695207    6.13469216232192   -2.30275135183548
F           9.36671016795142    6.34629080567215   -3.11645921015831
F          11.53331636592172    7.95920461595999   -3.29074279256521
F          13.68218777497882    7.54195816157308   -1.66609106588547
F          13.65003922757106    5.48126681919766    0.12100672561108
F          11.46871906893969    3.89836331874581    0.32380853364945
C           8.76918224901268    3.60345824492569   -2.56904373028506
C           9.53211086671023    3.11808645625646   -3.59881898308521
C           8.78226475615815    2.63902711193606   -4.68515425951943
C           9.42687807419725    2.08869183206443   -5.90917974622577
C           7.41793768813208    2.81480707011082   -4.49741581845259
S           7.08427858590837    3.56224078689837   -2.96155317623044
C           6.33137554835636    2.57275121704074   -5.38272152754357
C           6.19073055555266    1.57016670755474   -6.28784785136246
C           6.87952664103855    0.30595101532041   -6.43137857835538
C           7.44609462729328   -0.41073975452467   -5.41063839390375
C           8.05305297008741   -1.67324401140163   -5.57638102010380
N           8.57903500868496   -2.68746892524277   -5.67601521772071
C           7.36892739050122    0.01136131030905   -4.06880967701642
N           7.25080129003302    0.31478415866163   -2.96808673782615
C           6.62341578397909   -0.17699690592254   -7.78597490148326
C           5.62858561550112    0.62922562592852   -8.37319915797617
C           5.24218927970761    1.70616597985712   -7.43086003859954
O           4.38486045151220    2.54329562307088   -7.56611772956976
C           5.15897362396549    0.38639504499363   -9.64882691705254
C           5.69804619891116   -0.68319776094067  -10.35540607770936
C           6.69206106636647   -1.48165262214285   -9.78037137586924
C           7.16140360164998   -1.23896901235243   -8.49045586572741
C           7.20758255280500   -2.62808834208613  -10.58193829072539
O           6.62339081451983   -3.08982029356647  -11.53047509811070
O           8.37234632839464   -3.08177722217968  -10.12713978080621
C           8.93379973624293   -4.18052334918746  -10.83432201810249
C           5.27810736321080   -0.93767102423449  -11.77910455473492
O           5.89325018092012   -0.52590587819552  -12.72511363433503
O           4.12341812801323   -1.58872074254207  -11.82934838459771
C           3.66722862664316   -1.94379540326668  -13.13002906203449
H          11.16714965325089    4.30342360901016    9.41270609192048
H          13.54797363547856    2.51408335350623    5.41736901929750
H          16.72932456177810    0.34480923498829    6.97544965437319
H          15.82062417441463   -0.67351129353079    5.81584119011465
H          15.56805308701877   -0.85413320033489    7.58222518099639
H          14.95418237338048    1.94280059472746   11.83926199488623
H          13.43187608688708    2.47432215912390   12.59076366224545
H          14.79914787500840    3.62577378378959   12.43404806272096
H           8.66689249316453    6.52556642688078    5.23467423938642
H           8.39937490386069    7.59902026040791    2.65352849078939
H           8.79937540116118    7.55882966022355   -0.38014151245383
H           7.16417793513752    7.54292047404680    0.27232636543445
H           7.66000986550296    6.30297123377297   -0.88715768830182
H          10.60566203723857    3.06696434513771   -3.55620914445975
H          10.35779415734027    2.61653326798390   -6.10459262729648
H           8.77741351557968    2.17926355202019   -6.77726766035751
H           9.66790893594379    1.03298642862351   -5.76854017709111
H           5.53877694515691    3.31500660788644   -5.37869104759490
H           4.39575321244441    1.01568808997379  -10.07981119471468
H           7.92977070505145   -1.87236351736873   -8.07774024174835
H           8.25669466674120   -5.03615859106140  -10.80215023347572
H           9.87051915135985   -4.41329314212854  -10.33527874156058
H           9.10796041983863   -3.90796757498179  -11.87699449686770
H           3.63434778568470   -1.06319710285835  -13.77446423355439
H           2.67448595627410   -2.36580305569599  -12.99896189898122
H           4.34563394555848   -2.68007776130515  -13.56398870608006
