119
 SCF done       -254.241587196297          0.000790405704
C          -0.13693512460208    3.27783264272482    0.22480140097910
C           0.32877995660149    3.18019472835137    1.50915448120961
C          -0.41755472656346    2.64527375846027    2.58237492853656
N          -0.97385147215295    2.22849473353784    3.49444293519495
C           1.56944336413734    3.69247255616141    1.93765881970407
N           2.55977966814748    4.11753044531922    2.33309710905904
C          -1.51373689312209    2.98943758685824   -0.18119294176752
C          -1.78406372026685    3.66463935193225   -1.38679330638036
C          -3.02861421783086    3.61797562555240   -1.97924814545458
C          -4.02575981575340    2.87041605147216   -1.35524728579047
C          -3.75395501544497    2.17393241542462   -0.17265467998001
C          -2.49882127148324    2.22564396667368    0.42337292970633
C          -4.81976279508813    1.29336501113303    0.42682509327067
O          -5.04081236251729    0.17747574146827    0.04179204480462
O          -5.39924264564033    1.88657012801762    1.46157071195281
C          -6.46197411861678    1.16667923670218    2.07600188773854
C          -5.41086689757710    2.80867165369844   -1.89616326548006
O          -6.36293964378954    2.44385968309014   -1.25183207843910
O          -5.48042835930672    3.21275244587852   -3.16394943356936
C          -6.77286453710934    3.18314455446798   -3.75533167712399
C          -0.56159447523116    4.35533724930056   -1.84771061755916
O          -0.42446274734162    5.07278637043403   -2.80904025554575
C           0.50634448768301    3.93672611599423   -0.89238507011918
C           1.80535805332901    4.16139076489978   -1.23785547604792
C           2.98178414791137    3.58071451426117   -0.72048903310232
C           3.13178024404553    2.41597691867700    0.02339441884551
C           4.45704223897661    2.16667594587505    0.34353612583976
C           5.34213691379580    3.14223356385023   -0.17023301214564
S           4.53124738219929    4.34584319536605   -1.05758620582736
C           6.65613018676889    2.81806184078018    0.23429621804752
C           6.60302751543252    1.63887684582140    1.01223484284672
C           5.22066476595826    1.20047509816308    1.11328718872382
C           4.72754670601250    0.14085776192288    1.81619154614552
C           5.56096431574422   -0.73153714636304    2.54767873425967
N           6.24001010479429   -1.44292301509568    3.13674103198238
C           3.34306723778191   -0.13024670258128    1.85153598395937
N           2.21420510978478   -0.33030977548480    1.86718998444251
C           7.84856263887304    1.24177586612103    1.47168821870160
C           8.85683610333294    2.10393119835639    1.04990264851487
S           8.24569103976625    3.42641099422355    0.06931143081290
C          10.24000386647888    1.99924600283376    1.34076477613609
C          11.16284383747283    2.94518204497340    0.83795145213397
C          12.57225326567177    2.87159017588699    1.11826155262923
N          13.39343084264014    3.79929300364202    0.61588214875486
C          12.91596115530623    4.76602642175666   -0.13003488008135
C          11.51370146953574    4.83568957921803   -0.41414183602522
N          10.69355987983161    3.93642448691214    0.07335108231625
C          10.99659964489022    5.87517821662579   -1.22678589566105
N          10.60749370093954    6.72511644591708   -1.88804661134487
C          13.80416866234079    5.74040741234887   -0.64978672861850
N          14.49976736992602    6.54101140868123   -1.08117995406825
C          13.13435224236167    1.84656771810571    1.91369290555114
C          12.21436702383972    0.89810937084304    2.42046003042006
C          10.79766827856504    0.97186345385610    2.13854013880441
N          10.13411591561741   -0.02826943020751    2.71992403546537
S          11.15911846012108   -0.95588241738434    3.52831607219749
N          12.50208692447632   -0.15072274198077    3.19232182545108
C          14.52907733025424    1.79778896060080    2.16120221510138
C          15.20993012705318    0.84701331330953    2.91650697997078
C          16.57391690533809    1.09047586237470    2.94641285532815
C          16.94158424337241    2.23744238399401    2.20665203469841
S          15.60091584869852    3.01075607140875    1.48024939070242
C          18.34362492937139    2.38715102023235    2.28770449112048
C          18.86606512721154    1.33990468288426    3.08096187861076
C          17.77078779691068    0.48838348432232    3.51120379875527
C          17.86247222607622   -0.65266035654073    4.25249705417207
C          19.11029224802813   -1.13191229235327    4.70493108153649
N          20.13425063888015   -1.50231267477358    5.06404539231934
C          16.72874659543617   -1.41491778636023    4.60535094252193
N          15.80768836968411   -2.03159755387185    4.89778120693696
C          20.24763075132882    1.38088190413136    3.18888429794173
C          20.79774211716790    2.44323780652764    2.48079631363864
S          19.55866200249288    3.42460308986442    1.70514167784997
C          22.14817014233203    2.82879387225737    2.35213840621336
C          23.28440842095024    2.11270692247311    2.58402414969108
C          23.56624930430374    0.70599326934294    2.77710207761880
C          22.86861806461203   -0.35536172045708    2.26401778679364
C          23.26317710227418   -1.70492111621679    2.39778891638066
N          23.52382606311621   -2.81904740880924    2.47459255983807
C          21.71912738402096   -0.22700767681544    1.45945498320833
N          20.79641247626508   -0.16751927669043    0.77911349943049
C          24.89871810828924    0.61179141763853    3.37744950422487
C          25.50866938263735    1.88011450886570    3.33475828816103
C          24.56176605118363    2.86243900899204    2.76795087919233
O          24.74692399158388    4.03314104491395    2.53723974249034
C          26.79358413096027    2.08271823602821    3.79320155073554
C          27.48483777418999    0.99086624480355    4.31429752816809
C          26.88028456843070   -0.26951102433822    4.36930751542939
C          25.58589225703967   -0.47072240042223    3.90282007440696
C          27.68049588307095   -1.44690060410446    4.86124622242448
O          28.48349340330902   -2.02258494506993    4.17854286333056
O          27.32227569903655   -1.79032779104355    6.09156974286634
C          28.05388181972320   -2.86427347869568    6.67226020156469
C          28.85856659046994    1.12914348411287    4.87065798440553
O          29.34595973148669    0.34373003409762    5.64521126025591
O          29.47668831441565    2.22313346060057    4.42854528300019
C          30.79929607404092    2.42699399790675    4.90808000622057
H          -3.22644681929162    4.15073074303490   -2.89582943238960
H          -2.31117641625753    1.66740502106463    1.32657632607780
H          -6.13129358590905    0.16327150882977    2.35028751739657
H          -7.29967694821053    1.09058887112405    1.38095025955934
H          -6.74362536481311    1.73592626826591    2.95760503943773
H          -7.44999994546704    3.85007500182966   -3.21798336853943
H          -7.17905964202943    2.17040443443259   -3.72411967572717
H          -6.64344392112016    3.51374088740391   -4.78237927441352
H           1.93733166215579    4.84368347981504   -2.07271558995632
H           2.30991464941030    1.76979586634680    0.27202911315129
H           8.05387503272187    0.38140166860960    2.08186096447836
H          14.70058074783777    0.03420534799205    3.40090831298602
H          20.83596145518183    0.70637959886556    3.78387602392461
H          22.32138720303980    3.86709594275158    2.08305254789369
H          27.24885422582497    3.05955372043681    3.75216743779296
H          25.14181616275615   -1.45129989206053    3.96380400750018
H          29.09088685820501   -2.55994346691575    6.82212148200472
H          28.02814626322818   -3.73755016622854    6.01794027761735
H          27.57438558593252   -3.07875983373897    7.62339112124150
H          31.14560587911339    3.35277493453010    4.45685562113952
H          31.43922063438193    1.59291834613211    4.61479302610421
H          30.79985240888873    2.50418466721586    5.99699727764237
