99
 SCF done       -197.766650158464          0.000848173734
C          -1.09905977205405   -0.89832874594287    1.20125219139473
C          -0.40938084827656   -2.00785879797395    1.61349715920740
C          -0.34685497010298   -3.21284284189561    0.88654658940317
N          -0.24549935072306   -4.20630591910689    0.31963785750081
C           0.40415344209089   -2.04354629856135    2.76596746730434
N           1.08675146635154   -2.12554627651231    3.68468589920471
C          -0.98619588487831    0.42696706189902    1.80774614178714
C          -1.38325654025473    1.39404255386040    0.86429190581885
C          -1.33330397340991    2.74167001375973    1.16602032887738
C          -0.89184905473813    3.11923510363564    2.42475510355232
C          -0.51429994084059    2.17449676773798    3.37693878850111
C          -0.56160790947209    0.81555755198647    3.06430363348683
C          -0.07721600743461    2.59960623973983    4.74173122995575
C          -1.83669447431781    0.72551396812061   -0.36600930332443
O          -2.19560208124425    1.22395134973732   -1.40785055943559
C          -1.82139265473894   -0.73383651341120   -0.04280509292278
C          -2.50140223324201   -1.59400573318710   -0.84863282442066
C          -2.94058296795922   -2.90459594171902   -0.55744177156612
C          -3.12298599272987   -3.50181411947341    0.68195212460043
C          -3.58807983708780   -4.80442023107262    0.57457116585336
C          -3.77275374021525   -5.21596184097653   -0.76363629001248
S          -3.39474165397042   -3.98197601037500   -1.87367026403481
C          -4.21209702549336   -6.55978697946233   -0.76582499153440
C          -4.30245407907252   -6.99952487644614    0.57299001921692
C          -3.90857832976398   -5.91325852308129    1.45481779389710
C          -3.82313717944466   -5.92966696694670    2.81634704644680
C          -4.15110388534071   -7.06805995076778    3.58223652113580
N          -4.42945667857354   -7.98662751820974    4.20938799258144
C          -3.39685208100599   -4.79462844926537    3.53762372164310
N          -3.05249676697041   -3.86192647215841    4.10948114524882
C          -4.71522691875039   -8.31852116883750    0.68326105794511
C          -4.94517189521596   -8.90107008575390   -0.55817667709447
S          -4.64002273836893   -7.78066574531208   -1.88101044362073
C          -5.36490141095267  -10.22723801775031   -0.84685109088869
C          -5.63406750260104  -11.21915915030669    0.13689860835937
C          -6.03475321674672  -12.55404326457077   -0.21276672527999
N          -6.27198839348596  -13.44915048814929    0.76756159184793
C          -6.13266015121862  -13.09202318620817    2.01229363784593
C          -5.74169789359897  -11.78262843879735    2.35504149741645
N          -5.50591250849797  -10.88830042061702    1.43793559395499
C          -6.19020639677998  -12.96907836079036   -1.56479559661496
C          -5.93353534855442  -11.97745926132839   -2.53273612365932
C          -5.53205069057531  -10.64238107510704   -2.18288793501038
N          -5.34476230770038   -9.88475100941363   -3.26606697365893
S          -5.64061212685892  -10.75467416796375   -4.58134100567846
N          -6.02078053984892  -12.13355025579338   -3.85570198047768
C          -6.57109529656958  -14.27813070655552   -1.96547520217049
C          -6.85807759039054  -15.37773991101566   -1.16414581448124
C          -7.19389247697940  -16.49575563629557   -1.91279215776987
C          -7.16480701047742  -16.25717432495611   -3.30444293783980
S          -6.72257434969679  -14.65068816377870   -3.67947972618495
C          -7.52410765087627  -17.44671225474783   -3.97675371027626
C          -7.78100591144398  -18.44511271399480   -3.00335799750272
C          -7.57608820824984  -17.87830792301954   -1.67958632089999
C          -7.70436396940839  -18.50513940125960   -0.47514159986389
C          -8.06832847183918  -19.86432032805959   -0.36851903467762
N          -8.35881208077092  -20.96932696947938   -0.27410608383875
C          -7.47544041174742  -17.83931002949263    0.74783537995728
N          -7.29278663726032  -17.30899194732127    1.74798502696312
C          -8.15187057728059  -19.64664757568173   -3.57348202381294
C          -8.17600665619399  -19.59298945952255   -4.97334402253586
S          -7.72008228721015  -17.99983101731408   -5.57631578628228
C          -8.54817895180818  -20.70406588798680   -5.74716260391006
C          -8.60455289063609  -20.85813804278473   -7.10769305761796
C          -9.01947569638443  -22.05485975792415   -7.81712355144914
C          -9.54410007721311  -23.20076875362447   -7.28092304844375
C          -9.79104925319631  -23.43353602914174   -5.91093629827149
N         -10.03308103339691  -23.69852092917019   -4.82002397961786
C          -9.93841991661089  -24.32222786788527   -8.04191695867001
N         -10.27658483799664  -25.26807792069404   -8.59757845772622
C          -8.81344892580216  -21.80813467304598   -9.24456087166574
C          -8.33100404791599  -20.49701875739255   -9.41322978121066
C          -8.20045564958113  -19.85239409963573   -8.10097403912111
O          -7.82419614463476  -18.71238243349704   -7.88404821669602
C          -8.04987650205372  -19.99014243950155  -10.66693648666126
C          -8.25254535123787  -20.80823245445543  -11.76761904020676
C          -8.72624251248365  -22.10963750245864  -11.62345253535984
C          -9.00926090122768  -22.61264350356466  -10.35206064198800
C          -8.95475225905906  -22.97729108989657  -12.81925361350850
H          -1.63154353469746    3.47329506698883    0.43105212182718
H          -0.84194516660260    4.16817746071195    2.67784935757518
H          -0.27999773999265    0.08836699532652    3.80950269406384
H           0.25497498875029    3.63443305103548    4.74362756183746
H           0.72793803424254    1.96388978600902    5.10266260569679
H          -0.91028568200081    2.50795816832811    5.43936574519364
H          -2.79531593532509   -1.18766183735751   -1.81151968345481
H          -2.95981371277805   -2.98494464465205    1.61003048199889
H          -4.85251631933140   -8.86574147914323    1.59707967286687
H          -6.33482345003455  -13.84874512234935    2.75736748125096
H          -5.62368190864177  -11.46465741531851    3.38150818029038
H          -6.81293611686357  -15.32144495253374   -0.09272909912332
H          -8.40260438724002  -20.54138407098573   -3.03120042806297
H          -8.82241828858757  -21.56191764038836   -5.14475022399437
H          -7.68087734116870  -18.98165642851626  -10.77346739736116
H          -8.03831909758651  -20.43233419909629  -12.75730064255357
H          -9.37319203818802  -23.62296382258636  -10.25758914558988
H          -8.46180870708745  -22.57314782787712  -13.69937547929203
H         -10.02301292141106  -23.04674606360170  -13.02531088035861
H          -8.58954508957507  -23.98568202598977  -12.63670590197916
