101
 SCF done       -215.711937422704          0.000878033848
C           1.34200996357573   -1.98241428473002   -3.17133498134113
O           0.74370010628047   -2.95391382089524   -3.57352915574128
C           2.20082255829734   -1.09202755747994   -3.98362694587532
C           2.56692671262317    0.03584907842198   -3.22922882055109
C           3.35599815154509    1.01823690708126   -3.80616599122785
C           3.76892925946271    0.85348698740662   -5.12324042590464
C           3.39961231710698   -0.27143781576811   -5.86366982030142
C           2.60185704926936   -1.25428524664198   -5.29314907894090
Br          3.97729940470786   -0.47185128539020   -7.65169537077291
Br          4.84633259832841    2.19348007455040   -5.90941151235559
C           1.98895343708804   -0.08006380697147   -1.89188024028411
C           2.15227135147176    0.82172266314123   -0.87528817174299
C           2.88845086866217    2.02071163469918   -0.99422499982144
N           3.47227268974256    3.00774694062205   -1.03357422437554
C           1.61879067629151    0.69579132254085    0.42634916459482
N           1.22784137156015    0.67983755612398    1.50549749381550
C           1.26820214260856   -1.33935282226266   -1.83436863170685
C           0.52501232844776   -1.79812777841575   -0.78986244256762
C          -0.03467478975402   -3.10431285210226   -0.67906048041636
C          -1.25415521670841   -3.28625234656926    0.01124444980625
C          -1.90823810261796   -4.55687105952553    0.07067125749484
N          -3.15815546565475   -4.61471413695701    0.57711003613618
C          -3.70239289987827   -3.57050279632407    1.12709036002137
C          -2.95577545491755   -2.34712063505519    1.23614069447162
N          -1.80891847641346   -2.22580654873838    0.63451989003570
C          -3.47314072090149   -1.18484311601776    2.00499856040949
C          -5.10243588255276   -3.67550297380611    1.62427662291886
C          -1.30198123935878   -5.72598347783507   -0.44045598289331
C          -0.01978952836445   -5.57213643715168   -0.99781902609996
C           0.60140414664586   -4.27498128545779   -1.13440338534633
N           1.83798197846430   -4.36862301121915   -1.62614297632803
S           2.16573396470816   -5.91038612422389   -1.90771945138991
N           0.79374321523567   -6.55193703150134   -1.40224876056449
C          -1.96677676458510   -7.00421288466867   -0.40492906827756
C          -2.78427857259416   -7.37389077155127    0.68235045887527
C          -3.55600100647971   -8.59111023252775    0.67936715740474
N          -4.32500317954709   -8.89609106434328    1.73940516979205
C          -4.42623754771620   -8.04372215520411    2.72248516623994
C          -3.64159240763207   -6.84148234871338    2.73948749686656
N          -2.82517865639065   -6.56471313572734    1.75415445157124
C          -3.71671854811816   -5.94648211418420    3.83265491545849
N          -3.82362403255038   -5.20305104702566    4.69861832810537
C          -5.28805955132639   -8.34324201354886    3.80710347043009
N          -6.00285802466559   -8.54623405473618    4.67881832156348
C          -3.51103895860790   -9.48608224954041   -0.40476193634392
C          -2.65612879874203   -9.14982819908906   -1.46683384104996
C          -1.90213426597488   -7.91355782613424   -1.47641610392950
N          -1.24904803772881   -7.74730082310993   -2.62856140134093
S          -1.53375370975647   -9.00515262105811   -3.57483699921160
N          -2.50885434189350   -9.82503974090455   -2.61023525701042
C          -4.35233378965146  -10.65881236602999   -0.45815657323594
C          -3.85054931746939  -11.90056952680639   -0.89742800746051
C          -4.70781232098868  -13.03195998027755   -1.06437956248305
N          -4.19426731998119  -14.18897278808128   -1.53199514585631
C          -2.92794623347510  -14.26585278930546   -1.82587301413336
C          -2.05885517549451  -13.14592205006122   -1.60230394939857
N          -2.52891310087572  -12.02594698238914   -1.13883986777909
C          -0.59129444555961  -13.23856961945461   -1.84262417811458
C          -2.41275032044317  -15.56330243190088   -2.34262967720381
C          -6.10018763705006  -12.96566998249606   -0.82421241202344
C          -6.58065015767942  -11.75105676407741   -0.29561184250784
C          -5.71210196318920  -10.61079668230933   -0.11595884184369
N          -6.38591069939854   -9.54697100794816    0.33695873051599
S          -7.91042754511297   -9.95107942310520    0.57255033039788
N          -7.83323834899607  -11.47919865507866    0.08186938949289
C          -6.90235114477924  -14.11172458331052   -1.08796658605615
C          -8.23651168907439  -14.20631286401711   -1.33326089474078
C          -8.91581549545152  -15.52093423335356   -1.16477583297049
O          -8.39570143835181  -16.60304959977240   -1.03998819232366
C         -10.36184407108569  -15.20133580695902   -1.13579441192004
C         -10.54418071549426  -13.83088388572965   -1.39855703727493
C          -9.24287649341898  -13.22382663870792   -1.66709850889507
C          -9.04484941388924  -12.04091100005807   -2.32714955219567
C          -7.79268945067541  -11.60981704378610   -2.80994171096209
N          -6.80601378783720  -11.21995513423515   -3.24822918359905
C         -10.07765065412029  -11.14005322545879   -2.65760563330710
N         -10.87499299885298  -10.36025503786232   -2.92839579950170
C         -11.81906303383354  -13.29165640173995   -1.39342392856884
C         -12.89484610219346  -14.13276001579003   -1.13244122537062
C         -12.70715867442110  -15.49463117152466   -0.88758027770876
C         -11.42880631466292  -16.03890667618666   -0.88641455407799
Br        -14.18983771649039  -16.61660628553212   -0.55077467498310
Br        -14.63589071051214  -13.39797723312989   -1.11237382849403
H           3.65656807551095    1.90324315525175   -3.26928496464402
H           2.30420922385325   -2.12533247492529   -5.85600171025213
H           0.27312743761756   -1.13248732323425    0.02557799943503
H          -3.68774053077242   -1.48345127503676    3.02982171742475
H          -4.39766894816650   -0.81523401970627    1.56348676557078
H          -2.73160652558887   -0.39125146485899    2.00407412529457
H          -5.11979663194790   -3.59561058693375    2.71090594526680
H          -5.52754003542511   -4.63154112214971    1.33102831178721
H          -5.71259048789448   -2.87106870927801    1.21752834864090
H          -0.15573832207561  -14.03944851305246   -1.24710820444893
H          -0.12344401213599  -12.29566243616043   -1.57545455596825
H          -0.39544498814721  -13.45509786616647   -2.89155932964048
H          -1.65910299752392  -15.96871346527321   -1.66898955452015
H          -1.94918151601468  -15.42268866299877   -3.31771663168171
H          -3.23324387517187  -16.26938470304848   -2.43012933113647
H          -6.36705994248925  -15.05531270976308   -1.04166946484166
H         -11.99806393260777  -12.24398054895277   -1.57449384409623
H         -11.27368582094005  -17.08950101902312   -0.69557714944427
