141
 SCF done       -268.430207433062          0.000754716404
C           5.74635911184639   -6.07978780420590   -1.30549702885330
O           4.94792125734034   -5.96520209093644   -2.21016211830890
C           7.16868559038056   -5.67369124690383   -1.36521747114484
C           7.80200504428947   -5.96784208541852   -0.14683413569261
C           9.14004378715627   -5.65201676422725    0.02303301452680
C           9.82082803245075   -5.05165782278651   -1.03013891555424
C           9.18341192957562   -4.77028794344753   -2.23990106582684
C           7.84148365052157   -5.08210952245634   -2.41354547229863
Br         10.13538226560513   -3.95692949683837   -3.65591802284228
Br         11.64474829909694   -4.61062566389385   -0.79587284869319
C           6.82845631059922   -6.59235860254611    0.74553617114893
C           7.11997704945481   -7.14155199857984    1.96603533257818
C           8.40305412835452   -7.11428310143733    2.55399555741834
N           9.42124349124013   -7.11644751643781    3.08349470652665
C           6.21598700500183   -7.84306550084993    2.79362939640201
N           5.55863680128415   -8.44697810437007    3.51580992200219
C           5.54222788175895   -6.58860513496971    0.06834683496543
C           4.35619259719555   -6.85897855763582    0.69879772887522
C           3.04067994389221   -6.92292301649667    0.19785485907971
C           2.54373844901913   -7.01012922134301   -1.08444738367275
C           1.14079071728067   -7.05269121857333   -1.14707667897362
C           0.54083019691917   -7.03678378338726    0.14515294706684
S           1.74626284537271   -6.94599263519378    1.39577576839748
C          -0.82828763662604   -7.04726367100236    0.34585894249017
C          -1.41962805305770   -6.97807836734302    1.68706109149187
C          -2.40002338577980   -6.03291729058515    1.98365378053617
C          -2.94559502079305   -5.96543392892226    3.24935835158122
C          -2.53624910503981   -6.83648693743459    4.25388748648208
C          -1.55801825773416   -7.77581653183970    3.95499357713894
C          -1.00249370361517   -7.84618329890296    2.69195515955959
C          -3.12761315592383   -6.74177037716417    5.62607044485469
C          -1.62900114479393   -7.10654009051458   -0.81361034831896
C          -1.03418802207043   -7.14265910571390   -2.10397170233899
C           0.33374680135096   -7.10663829839207   -2.30595702861777
C           0.91435020619898   -7.10023936704471   -3.65222962395344
C           1.86710865013993   -6.15161301887081   -4.01929659401666
C           2.38755485673124   -6.14354840077113   -5.29777757640281
C           1.98034760627452   -7.07712161675908   -6.24428246680046
C           1.03185535052894   -8.02282269316290   -5.87376097649218
C           0.50148362956752   -8.03483843545394   -4.59935097385734
C           2.56512372129007   -7.07401142769564   -7.62229332885044
S          -2.24585466147910   -7.17551366998182   -3.36429658879270
C          -3.52161211554401   -7.15611878619867   -2.17336535099128
C          -3.03395814971154   -7.13848458009315   -0.88650384291684
C          -4.89433778929052   -7.13473639630174   -2.56182208874876
C          -5.27636262242847   -7.15461763551546   -3.91878471133224
C          -6.64587275755065   -7.08052956778299   -4.33613034366638
N          -6.93479561527930   -7.09362195838584   -5.65368239347030
C          -5.97887405623513   -7.17484744662288   -6.51946616612320
C          -4.62207201340759   -7.25246542040257   -6.10582286000601
N          -4.30668073190026   -7.24038509073021   -4.85269531277479
F          -3.64000018483568   -7.34271542388332   -6.99715229890234
F          -6.30179179264740   -7.18218544805352   -7.80897737197049
C          -7.71410799885011   -6.98244308295209   -3.42118896806014
C          -7.34353736905151   -6.98830327906337   -2.05642328777970
C          -5.95982078280424   -7.06150081755006   -1.63484199206619
N          -5.85381882255220   -7.04146125509272   -0.30465934916810
S          -7.31553239093131   -6.94931916523349    0.34598168798330
N          -8.16922891519135   -6.92395558194866   -1.00998426308388
C          -9.06598301353441   -6.87030967368063   -3.86280879418783
C         -10.17943143589788   -6.73264092619157   -3.06587831611669
C         -11.38324601721402   -6.62291430815352   -3.78683184437850
C         -11.15764811057770   -6.65239839866392   -5.18998169460018
S          -9.46430745527579   -6.86696174077671   -5.56294382533117
C         -12.17888283412454   -6.54184259963119   -6.11468521236269
C         -11.95527267661457   -6.66974096516931   -7.55837318079839
C         -12.72541185883580   -7.55872869228839   -8.30623569769682
C         -12.52471401553977   -7.69058217715612   -9.66640769427585
C         -11.55275536670656   -6.94119629880566  -10.31847873789908
C         -10.77873368110599   -6.06271984298568   -9.56712315051689
C         -10.97108270099398   -5.92798539508254   -8.20677324120027
C         -11.32323206664735   -7.09231904040148  -11.78945605107588
C         -13.47516986231002   -6.33263739221329   -5.59654536847453
C         -13.70009699993198   -6.30280697634644   -4.19222592145270
C         -12.68605507421247   -6.47337386312172   -3.26583165433912
C         -12.93663790275129   -6.50963434211761   -1.82095305580526
C         -12.42546489009061   -7.54670755532047   -1.04368623165394
C         -12.66390131571373   -7.58630033927744    0.31579813277306
C         -13.41114999742354   -6.59480337052793    0.94023200929178
C         -13.92152834267911   -5.56270363006272    0.16109402530974
C         -13.69350223645404   -5.51929007477694   -1.19989611723236
C         -13.68376989046945   -6.64629061961043    2.41139511037559
S         -15.38651443295875   -6.05464440406671   -3.83350817156768
C         -15.77901194811317   -5.97030385625889   -5.54146253107602
C         -14.65725822535502   -6.12395636528011   -6.32567563169904
C         -17.10050027205115   -5.66183973981023   -5.93231439927091
C         -17.67180775916238   -5.74421974859994   -7.16915554295728
C         -18.88529183998929   -4.93659536317433   -7.45820405382390
O         -19.59984801364392   -4.37682960488522   -6.66148211157211
C         -18.98912905832551   -4.92020128101812   -8.93633328360910
C         -17.99850993891551   -5.75477526766338   -9.48563950367370
C         -17.26657564459845   -6.39568003097676   -8.39441690205004
C         -16.54503005511342   -7.55569038155427   -8.50471524039752
C         -16.12028413039241   -8.30290398028193   -7.38668883148338
N         -15.79747498387320   -8.96393190514471   -6.50625090803004
C         -16.20626484160627   -8.16350023475461   -9.72923737715465
N         -15.86913982727816   -8.67244993870790  -10.70128011983810
C         -17.87673701603622   -5.87156887929744  -10.85914084114131
C         -18.75183851532518   -5.15262374098476  -11.66594108907639
C         -19.74162956676245   -4.33731435402359  -11.11376544156082
C         -19.86538226010643   -4.21608408474023   -9.73503230690049
Br        -20.92364201344484   -3.37935837740128  -12.23561060072640
Br        -18.57879883639054   -5.29456700433631  -13.54293797888825
H           9.66542696001761   -5.84974129885226    0.94307605461713
H           7.33585484053321   -4.86840655696192   -3.34242211180639
H           4.40999056872118   -7.00901722469871    1.77115836590025
H           3.17470874566156   -7.05477700127701   -1.95162039460474
H          -2.71286663250562   -5.33270321917894    1.22301258097027
H          -3.70008739389064   -5.22255260189990    3.46628048888431
H          -1.22567258971466   -8.46290553978824    4.71949570606027
H          -0.25643509088133   -8.59641955349712    2.47591859084074
H          -4.21024859121837   -6.64238126004972    5.57318531813292
H          -2.73779776255415   -5.86293623879672    6.14006455556456
H          -2.88210409086375   -7.61952631150327    6.21813176017524
H           2.18085415376371   -5.40155378077634   -3.30912745102863
H           3.12103156554900   -5.39739668135234   -5.56635978220899
H           0.70291362940959   -8.75869460160764   -6.59304552394954
H          -0.22089323670554   -8.78920173926698   -4.32602876315620
H           3.50846045055101   -7.62135063612747   -7.62698758407593
H           2.76695706123615   -6.05839719637067   -7.95522529543465
H           1.89313812606510   -7.55240299170610   -8.33048013793020
H          -3.68013019492690   -7.15349463606346   -0.02898680224762
H         -10.11564697741424   -6.69349232662793   -1.99454417940791
H         -13.45941830381145   -8.17468583147971   -7.80687563815549
H         -13.13171047956959   -8.38613114166230  -10.22846468155290
H         -10.01542411288001   -5.47589871991494  -10.05717406381036
H         -10.37235574094431   -5.22782966937547   -7.64379301306568
H         -12.17576353016041   -7.56621526080838  -12.26919151589461
H         -10.44429531504841   -7.71315731259884  -11.96442996593947
H         -11.14446315433693   -6.12508474944871  -12.25486306491670
H         -11.86154810282803   -8.33758114418055   -1.51573044916481
H         -12.26566233619479   -8.40214030319231    0.90207233275348
H         -14.50365806289442   -4.78168926919039    0.62851102628811
H         -14.08206602660820   -4.69767787809526   -1.78311419267534
H         -12.93881036919111   -7.24874803257996    2.92551795710906
H         -14.66263684941861   -7.09173261596471    2.59150618246390
H         -13.68908039385632   -5.64633826621804    2.83969025926918
H         -14.66548967618481   -6.01928078012790   -7.39602014044391
H         -17.73011023726688   -5.21594415109386   -5.16855736791423
H         -17.12128093828181   -6.49025717366281  -11.31665926984234
H         -20.62559394071818   -3.58674324225369   -9.29908422281415
