85
 SCF done       -190.108718249595          0.000797892800
C         -12.59652110551189   -5.37505661285639    9.98989986325582
O         -11.51345085999277   -4.83253175997113   10.04462300568857
C         -13.81457737597079   -4.91268852833458   10.68888544124896
C         -14.87329293865202   -5.80154354812494   10.44289341495232
C         -16.11928142182516   -5.54841983142410   10.99374469782626
C         -16.28132399237691   -4.41467744843566   11.78211646998908
C         -15.21905400983054   -3.54123122314105   12.02576318177793
C         -13.96923650036113   -3.78940683294206   11.47424903980689
Br        -15.46802340110983   -2.00945017947416   13.10388496144982
Br        -17.98354542392449   -4.06578439713279   12.52720290824813
C         -14.38592881845749   -6.88487762656924    9.59145427129068
C         -15.11398253165938   -7.99287429485992    9.24820893706562
C         -16.45550198840802   -8.20437215398080    9.63675405782914
N         -17.54403157702665   -8.43567119392622    9.91675662883081
C         -14.65385939907453   -9.09835855993734    8.49902029321608
N         -14.36865548148974  -10.04604124303584    7.91684242187161
C         -13.00305649855791   -6.58759580164302    9.24596850122111
C         -12.29273087774490   -7.29454608140830    8.31032413657616
C         -10.97675767959086   -7.15745483878151    7.83249059758750
C          -9.91956385968927   -6.33877567468121    8.20756989686790
C          -8.79957779301606   -6.54618107695879    7.41983758266551
C          -8.96691285028587   -7.53032891812061    6.42332715975570
S         -10.53728484282246   -8.21552493329633    6.48216448538354
C          -7.82913787178275   -7.68083555861524    5.63009646602574
C          -6.79533431613218   -6.81104751043498    6.02497686929552
S          -7.21850047148147   -5.81402431897091    7.38674843087307
C          -5.65969422098801   -6.90403666997419    5.23125023197071
C          -5.82131304374915   -7.84349287524734    4.22503071511355
S          -7.38353352783487   -8.63809221722350    4.26299628198901
C          -4.91714945461625   -8.17250319124932    3.19897222784972
C          -5.14391879929516   -9.10868318356307    2.18541267860197
C          -4.07147426056775   -9.18174845247827    1.23610074967620
N          -4.12471410589874  -10.00737709121794    0.19084990033198
C          -5.20181193275867  -10.75374603588955    0.07871418599298
C          -5.26466835204291  -11.67350669741379   -1.08697484455154
O          -4.38455743934109  -11.73365380698005   -1.91787860672490
C          -6.47838892017641  -12.50600283836236   -1.15879774586348
C          -7.47371730531764  -12.44601269780346   -0.26840882859481
C          -7.48018590272714  -11.53887736355146    0.89307846731719
O          -8.40286606641414  -11.49289848990713    1.67702045980473
C          -6.27101568013326  -10.68549855419407    1.03090310325921
N          -6.23225055755681   -9.86929341338022    2.06149975758460
C          -3.02120838013773   -8.30390241165670    1.52254800951628
S          -3.37097266515535   -7.41140376085178    2.97137437034865
C          -1.87415684044200   -8.12438269069151    0.72878121800802
C          -0.82040869722428   -7.24792242252873    0.93643502018174
C           0.10149785904638   -7.31096745652550   -0.10010386540923
C          -0.24217199051613   -8.23744472673236   -1.10159521427065
S          -1.72298689919938   -9.05197040806360   -0.75156964097487
C           0.68381374243090   -8.24307268131452   -2.14548010300093
C           1.73120366018489   -7.32579797406890   -1.93679642070443
S           1.57779331276767   -6.45227451055129   -0.43878757339627
C           2.66471682300845   -7.29980710953697   -2.96133799361307
C           2.34756612079770   -8.19109440654520   -3.97778364000807
S           0.85513183798743   -9.06002088155359   -3.64406835187912
C           2.98188138173006   -8.40632822025748   -5.21781020872246
C           4.22998055362770   -8.04826583087048   -5.63849515250118
C           4.48855718226365   -7.96515567340096   -7.10172531841791
O           3.78608132592551   -8.38326889579960   -7.99027039038391
C           5.75641443489090   -7.21144812419190   -7.22398218417232
C           6.28740130202075   -6.97651251363646   -5.94247851027794
C           5.42510225706777   -7.61795883675071   -4.94936640704870
C           5.81252593731727   -7.96511560067960   -3.68139286081481
C           5.05987386020832   -8.80982943283030   -2.84063551678226
N           4.49136132311676   -9.51604124982736   -2.13742302014740
C           7.04386938578796   -7.58775425381266   -3.10626736284840
N           8.02500192207691   -7.28762318768188   -2.59247581232391
C           7.45821557488744   -6.25180954268685   -5.80351927863786
C           8.08491123403589   -5.77617590243513   -6.95028272136641
C           7.55952580827022   -6.02643386649325   -8.21989690458033
C           6.38242317989389   -6.75066558640223   -8.36309982093071
Br          8.43712168400048   -5.37717209057492   -9.76233524448975
Br          9.67361692236913   -4.76983750779854   -6.76162713422137
H         -16.96475702887844   -6.19578473435645   10.82798433683267
H         -13.13948400073885   -3.12277871569976   11.65137797436143
H         -12.83339310051370   -8.09186987363339    7.81373665050439
H          -9.98510931510726   -5.62732136119771    9.00967865624739
H          -4.76457682634061   -6.32336690177129    5.35855670365334
H          -6.51653055084464  -13.18423881264292   -2.00064119098051
H          -8.34956445397998  -13.07404251594069   -0.36048802751934
H          -0.74865293251973   -6.60276749624119    1.79276565858439
H           3.50258668993876   -6.62804260039685   -2.99353893636709
H           2.36124096359045   -8.85286837187096   -5.98943303457701
H           7.88899095759282   -6.03689582421048   -4.83874112991864
H           5.96663990127338   -6.94732130949342   -9.33905208187983
