91
 SCF done       -196.749468098209          0.000616354910
C          -2.68706443681086   -2.78507365870508   -3.62139827800258
O          -2.35508666693474   -1.65495413495197   -3.35934895587479
C          -3.75173650963898   -3.23086416942428   -4.54910117189229
C          -3.76304460068907   -4.63716307194006   -4.61611495127250
C          -4.70233256287666   -5.28504808169605   -5.39926043485725
C          -5.61642643791942   -4.51611545902036   -6.11057478075066
C          -5.58887642084167   -3.12039241512513   -6.05323004392088
C          -4.64997180006965   -2.46682412093491   -5.26514103546350
Br         -6.83330768043941   -2.10049166112179   -7.04428322637409
Br         -6.91215877310991   -5.39513529663271   -7.16827691021804
C          -2.66702040842114   -5.15401944251084   -3.80117538161553
C          -2.05847802650049   -6.36832770142502   -3.96170504069494
C          -2.55861808827943   -7.38887923257671   -4.79635070613316
N          -2.94371449173244   -8.24866963652352   -5.45090031500371
C          -0.80653015217432   -6.67972202054387   -3.38626228299578
N           0.24059404115929   -6.93418244757864   -2.99284863671220
C          -2.15687612449290   -4.04189355750486   -3.02421963036980
C          -1.44209722405020   -3.99264344092810   -1.87026428972943
C          -1.20282783321491   -5.01871430170201   -0.91981044099434
C          -0.25254724464902   -4.97979510406164    0.07072838863269
C          -0.27037328800205   -6.10112335358016    0.92507361707671
C          -1.30748240183118   -7.01437053709114    0.58084123876106
S          -2.21522440383219   -6.45129356208825   -0.79319579368290
C          -1.52828304088154   -8.17859553431072    1.27547625821318
C          -0.69346927913533   -8.45323051167956    2.36401675265029
C           0.33603814949043   -7.53656373947133    2.72030762120439
C           0.55927862170131   -6.37733461102848    2.01605057159611
S           1.21793416533561   -8.07852294400464    4.12576305256843
C           0.22925011649833   -9.51983538176749    4.21739264235729
C          -0.72211221336704   -9.56745168836029    3.22425107855837
C           0.43466770674589  -10.48268328999996    5.24920573240869
C           1.39745665122097  -10.27158685589681    6.25955271942886
C           1.59617455586267  -11.19756782119782    7.34261874019374
N           2.51306683730473  -10.92855759933564    8.28079028565402
C           3.22460179834510   -9.83298672881663    8.20808126176297
C           3.03262786146784   -8.91376234327396    7.12291874836518
N           2.13932565349821   -9.15808819367696    6.19889769866652
C           3.80909687614184   -7.73054874809766    7.04182550934237
N           4.45431243906824   -6.78530882101070    7.00642169682146
C           4.18966774354561   -9.56463903183344    9.21104232952376
N           4.98028140809332   -9.31999663440964   10.00233428203310
C           0.85440314722238  -12.39265707799728    7.46412848268481
C          -0.08619962004996  -12.62662498191841    6.43632805358849
C          -0.29611487952692  -11.68705022189470    5.35343677942175
N          -1.23769252132087  -12.11816738665759    4.51094127034539
S          -1.79398299255402  -13.53376562142343    5.01062885046149
N          -0.88647562178270  -13.68885181373902    6.32045608591259
C           1.05462654380494  -13.27196258119805    8.56849651472389
C           0.40998124238673  -14.46586041736031    8.79823123978768
C           0.80783761922912  -15.10039588696217    9.99073581940963
C           1.79330663562031  -14.34431191451996   10.68816409933806
S           2.20179921219407  -12.87902546684689    9.83142108025733
C           2.32317247645199  -14.76186161354730   11.88467834365988
C           1.86751704053083  -15.97204939777074   12.41845071825571
C           0.89349578747146  -16.73413627981000   11.71081017166047
C           0.35764101421993  -16.31532067332205   10.51576410845268
S           0.50866632488160  -18.20408455747243   12.55433889678822
C           1.59386632129064  -17.77857043668551   13.86490244227070
C           2.23458380828742  -16.58469817381883   13.63248622296769
C           1.76138424860224  -18.69464641222905   14.93335530254079
C           2.23608316858618  -18.48056042977496   16.18979085073189
C           2.71458538777871  -19.64799761580615   16.98290553444535
O           2.54327854231672  -20.81587638549274   16.73182721542839
C           3.48380821933627  -19.06081257421094   18.10146958841864
C           3.36951650551569  -17.65869769811451   18.06577623442950
C           2.47754676358187  -17.28342490401801   16.96899706240885
C           1.81063593315399  -16.09191713399282   16.87290205082640
C           0.76622898589997  -15.84507109491658   15.95763145195887
N          -0.11159779087069  -15.60333721995439   15.25971404844918
C           2.02917465549609  -14.99871229204308   17.73842552478079
N           2.18717194699882  -14.07913134855557   18.40570772086664
C           4.03687618349702  -16.88912803172323   19.00339816899618
C           4.80328999096411  -17.53341715726953   19.96821396588098
C           4.89988494032176  -18.92673766291223   20.00552076912043
C           4.23622867194753  -19.70234108031179   19.06334197209517
Br          5.93975838076272  -19.77535711851147   21.33511143494673
Br          5.72564772883653  -16.48564411277246   21.24195729445336
H          -4.75034449631740   -6.36056448603593   -5.46138451803465
H          -4.62273039762195   -1.38945403274806   -5.21309938631939
H          -1.07650796603873   -3.00837949959500   -1.59275658081194
H           0.45735563630853   -4.17689618811719    0.16274482699927
H          -2.31377295161413   -8.86318352695671    0.99826309049212
H           1.34710600975373   -5.69506561906791    2.29237070640223
H          -1.41672846297587  -10.38159355439170    3.12956626785529
H          -0.32691934283267  -14.86204403479475    8.12418837365809
H           3.06167785943959  -14.17497869616471   12.40708524764996
H          -0.38442054880620  -16.89832133762766    9.99442646743408
H           2.98331492176438  -16.17772034527014   14.28952741356353
H           1.54247497008750  -19.73325069411217   14.70247219483663
H           3.98807662215699  -15.81202971169241   19.00113034473167
H           4.30619963004943  -20.77884661280223   19.08138226192811
