79
 SCF done       -174.716855795358          0.000654323832
C           4.28326480044571   -2.23152741839179   -0.90615712331023
O           3.36756146838847   -1.68485797701696   -0.32913444432418
C           5.49324210156895   -1.55448804107954   -1.41622211233248
C           6.29816406078288   -2.47220599392180   -2.11121854030957
C           7.49856882465517   -2.05035390332413   -2.65960573226826
C           7.86945437540962   -0.71901701654315   -2.50697529568220
C           7.05641671520413    0.18767454591365   -1.82211669367562
C           5.85345822398899   -0.23089307875777   -1.26936625073923
Br          7.58436002547845    1.99190426556824   -1.63441279883259
Br          9.51203972701455   -0.14542462943698   -3.24516007238598
C           5.63872109446611   -3.77538822181665   -2.09841189740365
C           6.05315432938542   -4.86873775078563   -2.80965411723311
C           7.21129068224894   -4.88561227264447   -3.61895527290927
N           8.13953495339963   -4.96114132311388   -4.28871033520326
C           5.38890641660557   -6.11316529832512   -2.88970787146490
N           4.91124011878557   -7.14749326647589   -3.03020348471129
C           4.44867300741747   -3.66004381488895   -1.26399607336394
C           3.72094623014505   -4.73998506950151   -0.84337414661451
C           2.57962431321964   -4.83808257053201   -0.01960764085546
C           1.75199295685342   -3.88885504715469    0.54764375421294
C           0.72765928033126   -4.42450959825832    1.33127726541402
S          -0.49687970860602   -3.41883004356423    2.05691827441742
C          -0.46128257122493   -1.97333979773102    0.94277161135605
C           0.75633846171162   -5.83112008030254    1.37996105923592
S           2.03883923428984   -6.45027213976639    0.39037964952983
C          -0.08683257274387   -6.76573831571649    2.04070799230448
C          -0.86806901283684   -6.48222847110103    3.18661511817553
C          -1.75453845471741   -7.44644205855825    3.78096668727353
N          -2.47770106258809   -7.08790918252494    4.86432867759260
C          -2.32768961514480   -5.90945989368011    5.37237674614917
C          -1.40529187203605   -4.98146513569321    4.82510127959349
N          -0.72026384753612   -5.27702209753290    3.76779543775720
F          -1.21140853855750   -3.79200968071740    5.38286142649968
F          -3.06407907859965   -5.59770666977078    6.43365449338324
C          -1.87087480691215   -8.76392022682447    3.28214800656582
C          -1.03223346957825   -9.07137099445945    2.18966657867774
C          -0.15883324232738   -8.10255673992322    1.58570548446698
N           0.52698672938443   -8.62634263680246    0.56972531745507
S           0.12061844849910  -10.16563810039584    0.38577646671972
N          -0.94208226945955  -10.25733694888387    1.58492347541699
C          -2.74723894061868   -9.75625935680898    3.81056907497560
C          -3.75351366628308   -9.63193108630349    4.74771701705135
C          -4.44371969384387  -10.82276254438015    4.98285173838357
S          -5.82613562103880  -10.87004163457450    6.05037391641675
C          -6.99929627912111  -11.93981656406453    5.14977330013060
C          -3.94947627368548  -11.90592455871084    4.25037787371885
S          -2.65409407535044  -11.38016059611021    3.19820764786785
C          -4.27201168790758  -13.26351634211531    4.42277159539984
C          -3.96322798372326  -14.31116673270371    3.59974844772907
C          -3.87038762086851  -15.69017622174075    4.13160983578251
O          -4.27214008078133  -16.09725668236348    5.19659944703083
C          -3.12991105562705  -16.44522130577746    3.09066092077749
C          -2.91045656755615  -15.61639097236694    1.97377271347017
C          -3.55439588974735  -14.32890592016362    2.21563044554536
C          -3.94736085403383  -13.43121077639952    1.25503650261144
C          -4.88911608468693  -12.42167538742458    1.53863461797079
N          -5.71510109604041  -11.65587278148540    1.76175736620435
C          -3.53360187740845  -13.47815886198029   -0.08850721739518
N          -3.18365687486061  -13.46296317593822   -1.18163096491128
C          -2.21496633411583  -16.09767279057263    0.87905877204088
C          -1.74470767997788  -17.40579668376010    0.91616505823711
C          -1.97506792848330  -18.22653449711353    2.02185402159670
C          -2.67526251346831  -17.74641121097751    3.12247541417188
Br         -1.33480727513031  -20.00508406202878    2.03919209511533
Br         -0.77571597671822  -18.06382266083249   -0.56798337966443
H           8.15462363900063   -2.71900237959352   -3.19245915531004
H           5.21702870676095    0.45776632418995   -0.73563812552792
H           4.08669104347883   -5.70996280475283   -1.15877343926039
H           1.91238945695343   -2.83773112706694    0.40441066043185
H          -1.35815914127292   -1.41003771906647    1.18066343027206
H          -0.48692538919198   -2.29597974502809   -0.09248786065994
H           0.41368110332690   -1.36277315260652    1.14059811958269
H          -3.99346349368061   -8.70384321993973    5.22979319680929
H          -7.98112065986787  -11.50500372065177    5.31155730937322
H          -6.97877825627910  -12.95109144890494    5.54192611324990
H          -6.75247919169751  -11.92221814372849    4.09306926213962
H          -4.70458836357716  -13.53345253540010    5.38110857235121
H          -2.02206018747440  -15.48645509030682    0.01172248709772
H          -2.85874579255196  -18.37515913610706    3.97989827067175
