93
 SCF done       -186.481995075223          0.000903426611
C           3.50052845614183   -2.33207921473454    3.36076147383604
O           3.02456925207667   -3.19436174273970    4.07023548318704
C           4.70255976423115   -1.53782705303748    3.69920345471948
C           4.96139407017579   -0.60194841357867    2.68552449820397
C           6.05609115495521    0.24042522303108    2.79607189419479
C           6.86731684872725    0.13335189562142    3.91988584526712
C           6.59609959602969   -0.79628048154066    4.92564076453386
C           5.50250164471938   -1.64470876520065    4.81774038867994
Br          7.71463593784613   -0.91454576989630    6.44531991471204
Br          8.36575037352204    1.27775113625227    4.06915550810551
C           3.93255214719363   -0.73665940193956    1.65802280677257
C           3.77881656212458    0.10956706371750    0.59250217258247
C           4.64507876122679    1.19077108370357    0.31883072779238
N           5.31470439606586    2.08071810355735    0.04192689483307
C           2.73784987926515    0.07999193323364   -0.36277885525513
N           1.93075138379090    0.17186567281993   -1.17443217611808
C           3.07630591609127   -1.85922985258638    2.02432340150733
C           2.17186769753300   -2.39322031180657    1.14629078600865
C           1.19000055477374   -3.42005198584928    1.24530512174626
C           0.59041634698579   -3.86120548538031    0.03029898459686
O           1.07693208014328   -3.33563671966046   -1.11390129383806
C           0.48196308357419   -3.68456363764069   -2.34334094211115
C          -0.43198973029756   -4.79563826688127    0.08223114550591
C          -0.88118894189064   -5.31782446995237    1.28846737825278
C          -0.25467747299139   -4.93006417233358    2.49461614332671
C           0.74612075086923   -3.98003692905860    2.45137975733721
O          -0.64759115675567   -5.56848431908529    3.62304002295622
C          -0.04916976821224   -5.19678597746796    4.84472147909714
C          -1.97335829497793   -6.28509466735665    1.29662735518179
C          -3.06042273203859   -6.17017317648836    2.17868892031837
C          -4.07653291927159   -7.18484921664711    2.26338829042824
N          -5.08325258829809   -7.05129132536437    3.16372311770008
C          -5.10637822865996   -5.98970526850563    3.91084380990101
C          -4.14971774855303   -4.95434868816809    3.76722732407983
N          -3.16749558607966   -5.04442672343124    2.92481371409578
C          -4.07261459697347   -8.30711459179530    1.41718529186349
C          -3.01926461163598   -8.39456506080160    0.49985151308627
C          -1.98056657057354   -7.38780087032398    0.43536304841757
N          -1.05509846834936   -7.69205847827871   -0.48695603052180
S          -1.44903895286555   -9.08539877931822   -1.16896418418366
N          -2.78953088594843   -9.39221268874351   -0.36379746265702
C          -5.10180534988363   -9.33932890010889    1.49929885826536
C          -5.75342137511026   -9.79412295660132    0.33012860760945
O          -5.44486636079599   -9.15643251375594   -0.82492661664618
C          -6.00610193171124   -9.62914581366126   -2.02654454338376
C          -6.69215427407376  -10.79728492667683    0.44616202380287
C          -7.00894755231351  -11.39439957515638    1.67852895763379
C          -6.40008055420427  -10.88071700366389    2.84778862195089
C          -5.45875410322265   -9.86713614259840    2.72931107329223
O          -6.80514549436146  -11.39135266452611    4.03472358004625
C          -6.30877130903183  -10.82321474456863    5.22714639555363
C          -8.00641341496672  -12.41797776730438    1.66591190669587
C          -8.32999704482991  -13.42327533593847    2.52570030078307
C          -9.66658360411305  -14.06207273263927    2.36806196565485
O         -10.43498407388974  -13.92669912646345    1.44503627849400
C          -9.86566922343728  -14.85830270956068    3.59920483975938
C          -8.69853096480895  -14.80214943544863    4.38220709809779
C          -7.68646867237110  -14.02339262554750    3.66966308305657
C          -6.34365078059346  -14.04155839562884    3.93996455424799
C          -5.36873158484201  -13.50540342997820    3.07617094172488
N          -4.54247080940165  -13.10209441583555    2.38948905043515
C          -5.77455361505145  -14.64914574314792    5.07706813149014
N          -5.26989901916389  -15.09341168951798    6.00750905283524
C          -8.65835153914641  -15.45503934496076    5.60237158243321
C          -9.78417140740048  -16.15723147119679    6.01848045265669
C         -10.93321358821619  -16.21900812238001    5.22858371129742
C         -10.97936289535697  -15.56329487942276    4.00461748016187
Br        -12.44516487932002  -17.19205663957568    5.81424528788107
Br         -9.73571919751365  -17.03646365639367    7.69221259845005
H           6.30113149209886    0.96846736854394    2.04004447716933
H           5.28192116462137   -2.36982892489981    5.58584819591064
H           2.20648080500568   -1.97101727412145    0.14861934482477
H           1.02102781280163   -3.11216354300606   -3.09636648891311
H          -0.57567629776618   -3.40775699519302   -2.36691294940575
H           0.58856027002617   -4.75392233127292   -2.54803895516661
H          -0.91513684734423   -5.13286542035879   -0.81942992345575
H           1.21778569694750   -3.65119170173889    3.35894784593329
H          -0.48615636971682   -5.85372892592632    5.59519043064777
H          -0.27517108702754   -4.15675001597649    5.09685762715128
H           1.03511519257209   -5.33680918959750    4.82307923372298
H          -5.91287609942308   -5.91582845453716    4.62865294382259
H          -4.22297755586832   -4.03873011628440    4.33879411490816
H          -7.09509463706775   -9.51675449450584   -2.03421083405394
H          -5.74251641131419  -10.67561609259039   -2.20488209410979
H          -5.57728377708150   -9.01054820625469   -2.81330052811478
H          -7.19396432703669  -11.17866481308373   -0.42869479906280
H          -4.95699124675054   -9.48540235480312    3.60157263788190
H          -6.82725418617592  -11.33845669428116    6.03486532054351
H          -6.52466451048971   -9.75285671108875    5.27757666723071
H          -5.23182321466872  -10.98692909236800    5.32834830745510
H          -8.68944182040543  -12.35891411890513    0.82089753424692
H          -7.78851742499849  -15.42813877104622    6.23885953984262
H         -11.86276940535170  -15.60352997056190    3.38643958854224
