101
 SCF done       -204.620301854407          0.000578845651
C          -1.27347241807583   -4.55974261936588   -5.89058314291097
O          -0.97182838926890   -5.67235239676747   -5.50235440108128
C          -1.30357523712795   -4.10991391117162   -7.29734742924907
C          -1.69703106424596   -2.76147130447084   -7.34599564232351
C          -1.79882228491189   -2.12554002383008   -8.57179088630874
C          -1.50677294169881   -2.84863541294450   -9.72362279842636
C          -1.11685324008090   -4.18745078115246   -9.66277282947374
C          -1.01182996852795   -4.83048576502305   -8.43569927662634
Br         -0.72853300784565   -5.14512157663037  -11.24534305186860
Br         -1.65021339122804   -1.97824040458534  -11.39613247874775
C          -1.93427659049376   -2.28972925239546   -5.98041561902963
C          -2.32888310756139   -1.01878919239948   -5.64725268362743
C          -2.56070785759624    0.00745470567461   -6.58757181113504
N          -2.76657222573296    0.88282010677244   -7.30086112739754
C          -2.56185536070946   -0.54200983320074   -4.34060042080544
N          -2.77586299238097   -0.07421025740981   -3.31329195197727
C          -1.67855085135298   -3.40164022700652   -5.08887828165662
C          -1.81156750276192   -3.38204514252789   -3.71888415295876
C          -1.61862513710612   -4.39380177079937   -2.77349563636701
C          -1.85066225551907   -4.18591119097738   -1.40121837099363
C          -1.64184516106444   -5.29813320236853   -0.62306677768449
C          -1.22926536559914   -6.39384058826844   -1.40429084737791
S          -1.10749339785752   -6.04111295368049   -3.07775996820085
C          -1.01565240632908   -7.61562971742896   -0.74077731860073
C          -1.23908094248150   -7.66205992850197    0.64164864020401
Ge         -1.77329868013837   -5.86695226466763    1.26299505268614
C          -0.42650654974557   -5.00770213489193    2.43759526529290
C          -3.62138787688388   -5.79378576683796    1.97846956181044
C          -1.04333059664251   -8.93200693443770    1.14951333564801
C          -0.66386871255563   -9.86392180925059    0.18278050065588
S          -0.53215084746215   -9.13370099479751   -1.39577666175143
C          -0.44300498105204  -11.25249357998573    0.35708372047157
C          -0.02394709388104  -12.06248796623009   -0.72523963161080
C           0.11696626867880  -13.48907617491914   -0.61193826362668
N           0.49692446223401  -14.19845869673179   -1.67854186040381
C           0.74854934841535  -13.59929635213726   -2.81716614770384
C           0.62317736029101  -12.17749141137412   -2.92556228475361
N           0.24291754795849  -11.46673683295346   -1.89160551081060
C           0.91521869106921  -11.52421510790225   -4.14852168541985
N           1.16240543979752  -11.03025378171762   -5.15163452839401
C           1.14189872016507  -14.38037645667742   -3.93175907249697
N           1.45173121753801  -14.99309085955108   -4.84835598201680
C          -0.15188117013654  -14.18951611534668    0.58772945496501
C          -0.51441583467049  -13.37760574535930    1.68990045978766
C          -0.65289545878228  -11.94009664909673    1.57774613795858
N          -1.00991528041126  -11.39215448617129    2.73866857514527
S          -1.15258858069853  -12.54150502855670    3.85036792004542
N          -0.77773693862150  -13.79943011390027    2.92596511690659
C          -0.08253065643231  -15.60363070148036    0.63099035560702
C          -0.35779754630555  -16.44015317934588    1.71272152050495
C          -0.23883900400760  -17.78437545431641    1.41365497112455
C           0.13984625165503  -17.98523338080772    0.08084467320824
S           0.34891522277169  -16.51507929365560   -0.79234078915180
C           0.29038901919486  -19.31139125088391   -0.36033463895398
C           0.02529193800217  -20.34416706332846    0.54522670499229
Ge         -0.44643103875527  -19.54212322381126    2.28699267154488
C           0.91617393235110  -19.91195801021113    3.67606803600374
C          -2.31200384526947  -19.92910386535960    2.84160322252665
C           0.18638003024924  -21.58877809918259   -0.03370152484472
C           0.61788341113835  -21.54070821851583   -1.35747126802673
S           0.76449434942683  -19.88463168845168   -1.90780793694147
C           0.83533876375153  -22.64543075494638   -2.20346306135406
C           1.53145451338398  -22.69884890214993   -3.37743383088826
C           1.24635418009342  -23.77327750707831   -4.35979179986247
O           0.60021032215955  -24.77905042803119   -4.17897328702028
C           1.87404125806013  -23.31161848967487   -5.62011308121111
C           2.59170219159071  -22.12490839124822   -5.38077574867278
C           2.51736431031425  -21.81306449564347   -3.95452132384296
C           3.42671938572666  -21.05222944410801   -3.26706715082293
C           3.50380913357113  -21.02528608960846   -1.85886068662890
N           3.62951398011774  -21.02568512901940   -0.71769462818635
C           4.45261904391175  -20.30857779693817   -3.88494865565880
N           5.30121493268271  -19.68816529309315   -4.34482728921094
C           3.23801006840441  -21.48388819523933   -6.42258842651997
C           3.16557661901950  -22.04571623890637   -7.69279813128817
C           2.46604132146438  -23.23236073355888   -7.91992109172909
C           1.80975389179349  -23.87479299080764   -6.87736483229458
Br          2.39908979845984  -23.98126162130689   -9.65397146240820
Br          4.03579445712948  -21.17190564542753   -9.12495473427622
H          -2.09644824350751   -1.09374305508627   -8.66288079655498
H          -0.71148159203981   -5.86490492742275   -8.37177874962780
H          -2.12897938897334   -2.44519916320280   -3.27715943530188
H          -2.17163594761288   -3.22992915416955   -1.02345033250586
H           0.55996564669662   -5.07074646976225    1.98907709021914
H          -0.40277770403884   -5.50050532983178    3.40471929209158
H          -0.67525100173980   -3.96171030147690    2.58821751262569
H          -4.31081822601262   -6.27760541835200    1.29375062893960
H          -3.92964663885145   -4.76155015904641    2.11296077588688
H          -3.67151468806531   -6.29754133726825    2.93892766290306
H          -1.16937691935561   -9.20918528830448    2.18057215607647
H          -0.63704625399793  -16.04496697201901    2.67282174758049
H           1.90996498659269  -19.73439675725636    3.27691313209168
H           0.84937505670303  -20.94684619398300    3.99754545153846
H           0.76263147643675  -19.26971153800858    4.53791688723269
H          -3.00103777060146  -19.71193091512633    2.03127257674099
H          -2.58085710412191  -19.32213157392043    3.70060125019118
H          -2.41088739219297  -20.97548764667220    3.11355270485210
H           0.03573155053654  -22.52182767487807    0.48096783274477
H           0.31483307952063  -23.55895434380261   -1.93140094859515
H           3.78026569781313  -20.56284527644542   -6.27932792177481
H           1.26498378419555  -24.79078102443066   -7.04551050093023
