85
 SCF done       -188.563718337429          0.000965196316
C          -0.77158817519831  -11.18375271719537   -2.12549262549435
O          -1.63623587435821  -10.36959299800320   -1.90927660748041
C          -0.96435099832810  -12.61201008122915   -2.44204823940666
C           0.28109715815614  -13.24690482779243   -2.60200473959987
C           0.32763509449249  -14.60003831756194   -2.89921769706019
C          -0.86892346137303  -15.29315623704830   -3.03822501613321
C          -2.10277401308662  -14.65120482404119   -2.88525529686454
C          -2.15455942722813  -13.29751060421340   -2.58087376532131
Br         -3.71064634191741  -15.61802071726063   -3.08853097372826
Br         -0.80711486315665  -17.13686099653543   -3.43927655502110
C           1.34175353950986  -12.26532201174388   -2.41517201585187
C           2.67421001941190  -12.46502358493729   -2.63890439440838
C           3.23163805593648  -13.70624026022612   -3.02127866516198
N           3.73280533346560  -14.69167036918029   -3.32515748580192
C           3.66282863684680  -11.45717637546150   -2.56430416632382
N           4.50931154338477  -10.68335399916855   -2.55314566646189
C           0.71127216439548  -11.00217908206416   -2.04538108863834
C           1.34818326411646   -9.93436395560335   -1.50950161265825
C           0.77036575095542   -8.65254351880492   -1.19638940417825
C          -0.16188774638045   -8.03711356505219   -1.96289184057133
C          -0.72165231853837   -6.75274179944809   -1.69222733418876
C          -1.69328549019138   -6.23028698311804   -2.54268126722495
C          -2.27204366867857   -4.97043114172174   -2.32215412151798
N          -2.72798849394179   -3.93249922249960   -2.13607586549796
C          -2.14322633599289   -6.92387080780400   -3.67786568203391
N          -2.50322304135359   -7.47929837604207   -4.61655651219966
C          -0.27977927427847   -6.00107143584074   -0.57030147986410
C           0.67981469666506   -6.39333486484614    0.31473383322970
S           1.50364693945833   -7.93924181634325    0.23615437792364
C           1.11174422108926   -5.55577015909626    1.38669620655450
C           2.10297970595810   -5.87827898587792    2.31365732157829
C           2.36996301677322   -4.82682472830640    3.25402424486021
N           3.24250809032245   -5.00500834635361    4.25476622803598
C           3.82612056658969   -6.17798169695032    4.32686325333931
C           4.67973762255589   -6.44308643965166    5.51756201642448
O           4.69463300339728   -5.69813574487251    6.47173871683451
C           5.46473416336120   -7.68665716662012    5.46330352604533
C           5.31544529741924   -8.61152802855441    4.50920309059369
C           4.34644247499449   -8.49508023392235    3.40475983822288
O           4.15790144325719   -9.37909536936222    2.59975307742377
C           3.61216093818690   -7.20035069461313    3.34703119600282
N           2.76051864098968   -7.03865027322629    2.36191893567154
C           1.56496467178287   -3.70817448065410    3.04658875890556
S           0.49259153927093   -3.97321575735852    1.71316185116247
C           1.54361386486867   -2.51208942470041    3.83530539232996
C           0.41479922183780   -1.77806132903501    4.00690298916494
C           0.31696106400000   -0.61112565699580    4.81785291070772
C          -0.90568117514696    0.03907340454656    4.95423477963379
C          -1.05516719584941    1.20278473316995    5.72631093905293
N          -1.17542524891923    2.15829957897046    6.35198205360767
C          -2.06931946891286   -0.43100365604985    4.32326580379874
N          -3.01513356610632   -0.82754572835040    3.80639384475735
C           1.47433822771112   -0.09918265206509    5.47235720842921
C           2.72167306169712   -0.64414751764974    5.43974359333485
S           3.09040992818242   -2.11638687239983    4.55504182300012
C           3.80965312680345    0.07443813615256    6.04012434029858
C           5.11822197913814   -0.23007561987289    6.18652398112139
C           6.07739515539189    0.91008391783640    6.37612155940799
O           5.80756100799091    2.02531261676000    6.73918782891505
C           7.38157004529409    0.37324495916289    5.94109760296333
C           7.26536677285592   -1.00729598901786    5.68683380041993
C           5.91247179869853   -1.43864183695933    6.03744299042422
C           5.56439951541434   -2.69080025608129    6.46047020548101
C           4.32570811024046   -2.94163574242602    7.09575513226458
N           3.34462603556539   -3.07797154089456    7.67236554378890
C           6.47916488176560   -3.76390284435155    6.40840816781239
N           7.25582358021590   -4.60503589009498    6.34137759473292
C           8.35627362851644   -1.71203138380051    5.20814674561901
C           9.55232340722507   -1.03198363599538    5.00811877636725
C           9.66763905640757    0.33301003934032    5.28865066096721
C           8.57225772782379    1.04712014859590    5.75630503472425
Br         11.31046143662290    1.22543234774672    5.02369721576559
Br         11.03556003672889   -1.98897941495629    4.33910678927833
H           1.25929281375049  -15.12879629720004   -3.01996482549416
H          -3.09879475055705  -12.78948052993817   -2.45973390835083
H           2.39019490280997  -10.03538249622872   -1.22821115333096
H          -0.50027785669575   -8.53114852590678   -2.86250280061212
H          -0.73129449134639   -5.02692082934813   -0.42128130182178
H           6.17056165977197   -7.81361468838173    6.27245658659685
H           5.89654058799405   -9.52363688291859    4.51352486991958
H          -0.48937590806701   -2.11765810937699    3.51656685880342
H           1.34012451195177    0.80996388814644    6.04528876608471
H           3.56251186514156    1.09483450692395    6.32174241342372
H           8.30174659717451   -2.76335574862565    4.97699391962482
H           8.64713598201666    2.10228642014358    5.96881891202823
