103
 SCF done       -207.034035318658          0.000514583606
C          -1.80683242200313   -1.47597637321553   -4.80500390824499
O          -1.92882567838849   -1.27624318865229   -3.61613571947052
C          -1.40092108801549   -0.44708635451725   -5.78747296527424
C          -1.35837584816467   -1.00175835678070   -7.07536194865390
C          -0.99311878886549   -0.20346063094132   -8.14851699057509
C          -0.68191834133611    1.13020816679975   -7.91191809979409
C          -0.73085182969239    1.67127782042423   -6.62523929242720
C          -1.09362549718859    0.87585153120701   -5.54712372444060
Br         -0.30611617282819    3.48966878435807   -6.33334873551968
Br         -0.18235399793299    2.21556600651050   -9.37813328025574
C          -1.74075451659974   -2.40921653420638   -6.99015058819346
C          -1.84082591173125   -3.24479145792139   -8.07134091035311
C          -1.57323506998678   -2.84945346262782   -9.40133167581526
N          -1.37474703167237   -2.60015344286907  -10.50363788084412
C          -2.22404348074918   -4.60445990981929   -8.07227839172346
N          -2.52448459919642   -5.70655938130350   -8.19922376539787
C          -2.00440000930361   -2.71939008910053   -5.58604854900104
C          -2.35189481429756   -3.97882600475207   -5.18115366553706
C          -2.69057334541499   -4.59446074216745   -3.93686319929813
C          -3.00568025945115   -5.96587514206419   -4.01095309543206
C          -3.36682838755282   -6.63536103818635   -2.86169383699005
C          -3.42787120582718   -5.95742962347973   -1.61070545492710
C          -3.10673657531786   -4.60381261740084   -1.54220968395628
C          -2.74474788539579   -3.93742328079793   -2.68721421900376
C          -3.85287042110113   -6.92182775582174   -0.65212822204981
C          -4.03425406889403   -8.13876927195716   -1.36028273202865
N          -3.72250618228134   -7.94946777081795   -2.68226873813139
C          -3.76338293341676   -8.96590449910084   -3.69613002432789
C          -4.47859013342357   -9.28400540675987   -0.72028898192367
C          -4.72771018964791   -9.22221558348402    0.64743569267085
C          -4.53575196851108   -8.01599705600091    1.34968205036960
C          -4.10446356319754   -6.87576071002029    0.71710437207955
C          -5.19377097191484  -10.39965036445385    1.37324052151732
C          -4.72659633481370  -11.69725765362591    1.11134730106997
C          -5.16274187793369  -12.84198079503197    1.87352222558209
N          -4.69591539061835  -14.07321085092323    1.54514723055431
C          -3.84476681549357  -14.19271406244025    0.58725144092923
C          -3.36770273786138  -13.05447582154974   -0.12489612270968
N          -3.80157469309400  -11.87045434231115    0.13252665984510
F          -2.45950120537900  -13.18428957810673   -1.09268135101302
F          -3.41831303053230  -15.41538900942242    0.27724647532476
C          -6.08668664285937  -12.73612343990667    2.92475866317716
C          -6.59209458339052  -11.44543800064217    3.15922098927538
C          -6.13867836889824  -10.29454451581875    2.40826974409363
N          -6.74783294501091   -9.17333854761064    2.81426412184892
S          -7.75274341275094   -9.52281681637581    4.00560926468642
N          -7.49576863641701  -11.10016543380802    4.08619846546705
C          -6.49170974732422  -13.86613302721408    3.75440926440272
C          -7.80853690315849  -13.95068627941881    4.19913432064603
C          -8.15540262989681  -14.99158493657827    5.04254404212495
C          -7.19974234958194  -15.96076296990729    5.44454952462070
C          -5.88976939567120  -15.87130402996480    4.98103911975347
C          -5.54788184682006  -14.83312117007465    4.14750360047344
C          -7.88186746228131  -16.86118241144131    6.31595142573199
C          -9.22291938799808  -16.39599578643558    6.40148786020002
N          -9.36333595389373  -15.27086434023976    5.63196392751332
C         -10.57439418599486  -14.51861129711561    5.46348101849024
C         -10.15204689166215  -17.04148188763394    7.19520352359255
C          -9.75764130773167  -18.19191210378532    7.88267140468833
C          -8.42224263805197  -18.64002754020471    7.80447979183925
C          -7.48905238901765  -17.98302281391553    7.04047920590411
C         -10.71810682869202  -18.86074747444485    8.71656884513160
C         -10.76953817260283  -20.16704153613282    9.07713775250914
C         -11.57093847776686  -20.57698486311917   10.26123765681831
O         -12.39800770766556  -19.92036811284012   10.84727205939483
C         -11.08913164470233  -21.93703623265133   10.59453030506397
C         -10.17966483572378  -22.36904449596463    9.61099104732349
C         -10.08295877948402  -21.34302143018975    8.57523639789091
C          -9.65918052369531  -21.54703078177257    7.29086490322870
C          -9.84220992176117  -20.60689439208802    6.25327936867339
N         -10.03180283580920  -19.91185341320154    5.36062992685324
C          -9.08082704269279  -22.75252537560057    6.84170753996959
N          -8.59019463949518  -23.71157264468296    6.44690765402050
C          -9.56732128265211  -23.60491858005221    9.73239605371643
C          -9.87663201958069  -24.39351466722686   10.83461344709200
C         -10.79110763481816  -23.96392258212728   11.79918451866147
C         -11.40569538357650  -22.72377636715068   11.68254924929096
Br        -11.20010355105129  -25.06291271155380   13.28169793235390
Br         -9.02929331525457  -26.07387723370983   11.01544137273474
H          -0.94103506990718   -0.58011827272192   -9.15664557170243
H          -1.13619731769981    1.27720203332883   -4.54642923757689
H          -2.39018953422102   -4.69445443209753   -5.99415786685703
H          -2.97226788682813   -6.47119849879538   -4.96503264716662
H          -3.14703749757328   -4.08423437646483   -0.59748895260491
H          -2.50053098618512   -2.89165411284638   -2.63529719194452
H          -3.43982957296211   -9.91670662063124   -3.27274723872587
H          -3.08952063205227   -8.70106390430947   -4.50872947757464
H          -4.77363712959159   -9.08251906735814   -4.09951566678616
H          -4.65166696254411  -10.19794450834040   -1.26220645998181
H          -4.72366613693131   -7.99945893496954    2.41050046639496
H          -3.96064171416989   -5.95908892700053    1.26776340909480
H          -8.53209169643762  -13.22072943548152    3.87662408771730
H          -5.15423562038417  -16.60153742423097    5.28082999218192
H          -4.53264336679936  -14.73810238218441    3.80058117516991
H         -11.14840553065756  -14.53177391358003    6.38953945180579
H         -11.18981481459895  -14.93544120417847    4.66078508816387
H         -10.32909348244646  -13.48563688598206    5.22225848887843
H         -11.17568497885238  -16.70599489966819    7.26042237589447
H          -8.12342802185480  -19.49162262038547    8.39753891577559
H          -6.46739844888179  -18.32775240094405    7.00087518056308
H         -11.47107151839993  -18.23062330982623    9.18075077365923
H          -8.85435100278196  -23.96395727190517    9.00737630066681
H         -12.11124352643098  -22.38186253357850   12.42383107911680
