75
 SCF done       -158.442575992746          0.000711643617
N           9.02206386787297   -1.84854690579490   -0.10891505700989
C           8.91149772902516   -0.91285567222774    0.54793088117315
C           8.68194953222915    0.25984618960677    1.29198601606863
C           7.33386934404164    0.39103308793964    1.67000410769154
N           6.22427819224389    0.46287639396224    1.95758994404936
C           9.65948804009146    1.16024706274094    1.63966766325172
C           9.48318743802482    2.40445903841850    2.33543015020644
C           8.43011382834670    3.27082226171226    2.47433295962428
C           7.21977948994747    3.38087597945503    1.77602692065368
S           5.94206005467378    4.35372641586932    2.45497380680352
C           4.87076754511903    3.99506186751098    1.13924170366632
C           3.54539584534894    4.49781122424046    1.15901146895427
C           2.50702014165913    4.28936998931152    0.26749309561490
C           1.32534763898988    4.92278966053713    0.63465136140014
C           1.43208920802194    5.64837813923588    1.80772737143734
C           0.44343707119786    6.43189655281111    2.45824964482098
S           0.82624480234973    7.38212016361843    3.85106937063900
C          -0.82098222671241    7.94037192713915    4.01495181518902
C          -1.08252750241670    8.84658131159068    5.05590924390852
C          -2.23403545161005    9.24849412898346    5.68011818510170
C          -2.20554655628740   10.53882856101245    6.42231345025040
O          -1.23457116683986   11.20857782699366    6.68262479068007
C          -3.62273496499678   10.84000130276334    6.72593151906658
C          -4.16550980160439   11.96969214356864    7.29988302145718
C          -5.54552205522437   12.03020915976833    7.45431576095649
Br         -6.32220562018922   13.57068964936212    8.22728293434463
C          -6.34929773918815   10.96810074617015    7.03860360966869
Br         -8.22687264747041   11.06633830658540    7.23597470363607
C          -5.79810213293317    9.82378842514287    6.47120069917199
C          -4.42525401080600    9.76117372236291    6.31344554102609
C          -3.56254473816558    8.71138078759049    5.77203044115811
C          -3.93135403088930    7.40159983555953    5.58455056760530
C          -3.01372392470679    6.36691952570188    5.32064046221774
N          -2.29656712964863    5.49482718837940    5.11153802949052
C          -5.25165312250360    6.92521736955843    5.70916058499999
N          -6.31050818013692    6.48592901329750    5.76476250690367
C          -1.60865913985581    7.41526729379608    2.98719875691909
C          -0.89648691851575    6.57944847745232    2.10562987353265
O          -1.38420152715833    5.93886354477241    1.01421882063537
C          -2.64263708217056    6.35693117172618    0.52755892573920
C          -3.68979277764626    6.44694758340446    1.62171130731892
S          -3.28705855013768    7.83337249431737    2.73111052089534
S           3.03312160701752    5.52340638284696    2.46968425322572
C           5.50108653728411    3.19896332832236    0.18853903256782
C           6.82871624709394    2.87815551186212    0.52753380595773
O           7.72468577989860    2.21512295089569   -0.22964450974889
C           7.35512372037478    1.90950912661303   -1.56182899002305
C           5.96782041850658    1.30247603404964   -1.64559954290993
S           4.73087863853793    2.58094524714919   -1.26214855634221
C          10.78846573923030    2.79306380313999    2.93119941214490
O          11.00253025820237    3.71099384158343    3.68736402161632
C          11.77134654583028    1.84172273314071    2.36301012449881
C          13.13982898481174    1.80930915651774    2.52547683825318
C          13.85756619549304    0.81918221879998    1.86491286527142
Br         15.73636449890450    0.74987693099281    2.06419267762322
C          13.19863207840324   -0.11239384540711    1.06199069904090
Br         14.18326718239227   -1.44685242412771    0.15317439775265
C          11.81614010165454   -0.08517916425536    0.90972400786723
C          11.09812673081751    0.89907511422277    1.56538587560140
H           8.59033433866457    4.03681561278825    3.22861977076184
H           2.60415082140196    3.69079346863657   -0.61838395906987
H           0.41383508026627    4.86751395565209    0.07114079710777
H          -0.19979005166902    9.37375881991617    5.41131079470036
H          -3.53527451662516   12.78577810649049    7.61745291052461
H          -6.44867567568797    9.02279191127672    6.15880880016470
H          -2.92275307432518    5.59874172180489   -0.20849825825453
H          -2.54574031353609    7.32823029157554    0.02296429044915
H          -3.71293014576986    5.53469441401456    2.21931819824799
H          -4.67535198695588    6.65504262813230    1.21240979229466
H           8.11162139530501    1.19893960050503   -1.90639832998622
H           7.40708784882074    2.81744241862801   -2.17725987210548
H           5.85428274736166    0.48469138578750   -0.93302923886275
H           5.75108780009266    0.95526536863524   -2.65289505538775
H          13.63897418499927    2.53349504457366    3.15038985394210
H          11.34043951158035   -0.82216464117582    0.28268561234490
