85
 SCF done       -187.738531305332          0.000909186982
C          -4.60940507040125   -2.18641951790518   -1.21778710630999
O          -4.45317296514847   -2.08915717656431   -0.01373238908723
C          -5.45847793467762   -1.32922870266101   -2.06870642806930
C          -5.43912955310850   -1.81184214629695   -3.38972614686507
C          -6.19119853219491   -1.17684391818099   -4.36338788589939
C          -6.94695327170380   -0.06661631516162   -4.00177609948144
C          -6.95631614058979    0.40691886974829   -2.68890203360264
C          -6.20817737697198   -0.23006563703146   -1.70706440458076
Br         -7.99080583381423    1.91928471714665   -2.22617092166601
Br         -7.97930081679167    0.79950298504186   -5.32828673541475
C          -4.55112922052471   -2.97126241185917   -3.45215481621031
C          -4.17133680462613   -3.62828817353047   -4.59116870577866
C          -4.65733806573534   -3.31644962784193   -5.87906404486669
N          -5.02333750299079   -3.10084998796960   -6.94490974604924
C          -3.21352892602613   -4.66509699223254   -4.63681609342085
N          -2.41714062604734   -5.48351798770209   -4.74906412985694
C          -4.07164149781666   -3.22357499681475   -2.10734051447645
C          -3.39880361995319   -4.34339964688206   -1.68454256303900
C          -2.79950105996789   -4.57032530784338   -0.43713196867455
C          -2.18311959947741   -3.70610589142756    0.46992753117364
C          -1.65085109174162   -4.37819394644899    1.59083127373477
O          -0.92041313295349   -3.83196545805654    2.57560589615679
C          -0.89076246429217   -2.42226439185386    2.66080264320541
C          -0.54369493342431   -1.77958195006995    1.32945031701118
S          -1.95080859274772   -2.00642089348849    0.18378957246491
C          -1.88222600178111   -5.75865479643180    1.56509824744724
S          -2.62143441851551   -6.23980598189303    0.07224098118999
C          -1.61072028452629   -6.72808288254309    2.56902770688012
C          -1.61286246068536   -8.10319508369633    2.22000070335767
C          -1.34390369142122   -9.15474618692611    3.16341893141336
N          -1.50396047958990  -10.43194066807937    2.78742006126403
C          -1.81409988695374  -10.71078657361998    1.54971103525831
C          -1.98111505857441   -9.66687779748131    0.57932195782498
N          -1.89618855599603   -8.41475306783144    0.95070331031107
C          -2.25403860355985   -9.98387515620715   -0.77410397684526
N          -2.47483637420285  -10.28823847450802   -1.85561343803080
C          -1.96161003295124  -12.07371964406026    1.18434767678666
N          -2.05257422287329  -13.17318000630150    0.87848058145623
C          -1.00550535400721   -8.87564901117789    4.50406587028964
C          -1.11024315440695   -7.52145443630370    4.87926234348446
C          -1.41183222165841   -6.46071087927205    3.94171705611956
N          -1.52353084470720   -5.28727702378611    4.56609858146463
S          -1.25327295850993   -5.48234102433221    6.12837814234500
N          -0.98636793694391   -7.06250186357600    6.12517862607907
C          -0.71729380215307   -9.88123710626492    5.47681454646734
C          -0.12662113399512  -11.13035328624704    5.32633761347770
C          -0.14528903773005  -11.89318534046098    6.51016769012411
O           0.37514045800825  -13.11984390234125    6.70275732178056
C           1.18797538338313  -13.67285481785806    5.68059608993490
C           0.61298371409814  -13.46541653307517    4.29321062489300
S           0.68027102471299  -11.69506747489906    3.87670468661319
C          -0.76130628768378  -11.22857574176822    7.57885946543374
S          -1.19114290319367   -9.60361086018212    7.12052191740277
C          -0.98441138449516  -11.63850584768899    8.90315187583451
C          -1.02186843948798  -12.88397849092744    9.46847949224211
C          -0.87514143665575  -12.98765252487848   10.94529490585244
O          -0.90716506319466  -12.08414412914500   11.74677650061821
C          -0.63531968531594  -14.42427799144812   11.20880540687806
C          -0.72941161030792  -15.14173099732111   10.00231544674517
C          -1.09566651595916  -14.21588376386628    8.92936764932418
C          -1.61376320970091  -14.58690694638180    7.71377107697127
C          -2.25150414258981  -13.69247289940407    6.83420751989316
N          -2.78297237677293  -12.99139566597432    6.09666536680641
C          -1.61265721501085  -15.90806217161344    7.22474816995383
N          -1.58689962007262  -16.95522554313994    6.75532230162273
C          -0.52070678971556  -16.50970782085477    9.99834366983924
C          -0.22268725419461  -17.14076097043676   11.20163924764999
C          -0.14362130599013  -16.42313790910283   12.39611790694035
C          -0.35145296117436  -15.04918857956982   12.40460443890121
Br          0.25035797182744  -17.30954215248635   14.01832600649412
Br          0.07555669200660  -19.00767679896505   11.19631188024896
H          -6.21253142067693   -1.51710612102086   -5.38604255940756
H          -6.21099695613255    0.12498392703453   -0.68833148552696
H          -3.36247134888431   -5.19472042245236   -2.35391156333631
H          -0.12763895000177   -2.20642514659065    3.41278407817450
H          -1.86059904420569   -2.04896969553919    3.01349055550529
H           0.34807139093813   -2.23072250892530    0.89461359310643
H          -0.40500027427321   -0.70652194260276    1.43405058005323
H           1.24861874313991  -14.73859497441433    5.91979510196739
H           2.19275699846773  -13.23448950253125    5.73886605096396
H          -0.42688477075155  -13.78903646500015    4.23730959578840
H           1.20526666165149  -13.98419908321514    3.54369605423157
H          -1.10514371928152  -10.82719604306242    9.61608708566830
H          -0.57505113727114  -17.09629805560874    9.09531726791286
H          -0.29318206608180  -14.48466263653026   13.32223792746935
