81
 SCF done       -176.933805943457          0.000883728218
C           1.70008974249374   -0.95044210451147   -0.71330128440641
O           0.52840710368704   -1.20112601834064   -0.53918876537203
C           2.27128060341414    0.36791274728536   -1.07543682902496
C           3.67531821630818    0.29979957300779   -1.05571537204235
C           4.42287640895742    1.43135483389618   -1.33449284755540
C           3.75395205701978    2.61296146876456   -1.63493373034266
C           2.35958331348992    2.67007207714957   -1.65668663274612
C           1.60582432110071    1.53898619095586   -1.36948478776827
Br          1.47596001042054    4.28771516760807   -2.07571965472554
Br          4.77177974177289    4.16107221814949   -2.01288847101647
C           4.07395162742888   -1.06525079644832   -0.71903095964241
C           5.35376710332062   -1.55531131498755   -0.73717673488019
C           6.49343805592672   -0.77279564061568   -1.01663899260737
N           7.44959553653587   -0.17714041282973   -1.23493507992202
C           5.68984702461603   -2.91007553651607   -0.52865335855687
N           6.02910861977436   -3.99888444248876   -0.39966705188971
C           2.86901147111712   -1.82621487287891   -0.47994084061029
C           2.79647674670681   -3.07722203443360    0.07869652764929
C           1.66571289261664   -3.90781480123651    0.11209991826863
C           0.61482142702526   -4.02271207113100   -0.82234517845071
O           0.64433861595295   -3.32640008477738   -1.95997224368766
C          -0.43447640658374   -3.48534334889581   -2.85743776036679
C          -0.31714990898488   -4.99390346617326   -0.45356427242544
C          -0.00652592728132   -5.63828773150971    0.73479560617256
S           1.48289925609448   -5.06306608345019    1.40652851819223
C          -0.76005060046376   -6.66175210333459    1.36772067212730
C          -0.34330552180206   -7.20832214943650    2.60600991448588
C          -1.07531692649236   -8.23807648437747    3.29578548319514
N          -0.54860297141037   -8.80049607015273    4.39051248211993
C           0.57130987431580   -8.33568850185497    4.88026932509202
C           1.24363248284658   -7.22912360987824    4.26178898061338
N           0.78468392321594   -6.72893609901936    3.14304617950030
C           2.41280417543232   -6.68314472399111    4.84729215037599
N           3.35054231227442   -6.27247412833211    5.36021164596151
C           1.10555706876712   -8.94602614005136    6.04353841822438
N           1.53896561949645   -9.41403141630104    6.99446862275338
C          -2.30843284272227   -8.72046402202463    2.80050302056514
C          -2.68220459341506   -8.23846297376635    1.52681943448953
C          -1.94260193392210   -7.21529867797782    0.82681246498680
N          -2.52597057069343   -6.90744304143702   -0.33464264825880
S          -3.84755368429755   -7.79653930921662   -0.52501722863724
N          -3.76095277848984   -8.62437234715556    0.84286546602368
C          -3.16022654815543   -9.61735645474785    3.50231666097726
C          -3.35056554617212   -9.78968197894349    4.88529578528815
O          -2.67531720304666   -9.04206086240459    5.76707777891938
C          -2.92495388919043   -9.25247474136638    7.14160254236695
C          -4.34617187007581  -10.73040684473294    5.17159189593906
C          -4.95995917350855  -11.25408061403373    4.04573391217194
S          -4.25536866443787  -10.60029795041884    2.59846550128509
C          -5.98341041615323  -12.22919495404411    4.02608763128524
C          -6.80880445688405  -12.56596391752739    2.99589238767546
C          -7.46927332202555  -13.89823752342949    2.98270567577207
O          -7.60312707979195  -14.65869669294513    3.91039930190212
C          -7.85800506085014  -14.10899477604348    1.56861684603452
C          -7.58280903703700  -12.94615953797327    0.82364666486669
C          -7.08344375166451  -11.91597631475065    1.72967734165935
C          -7.13659247997400  -10.56680861363963    1.50393285539880
C          -6.98275696236093   -9.61077427047496    2.53219077040781
N          -6.93589009931100   -8.80971915790182    3.35211070739374
C          -7.39402699534465   -9.98237604407985    0.24902007889335
N          -7.54450734547887   -9.45731312689227   -0.76043736101416
C          -7.83733640012205  -12.91950075694938   -0.53641836929154
C          -8.36496761527630  -14.05799534948497   -1.13494382636381
C          -8.64762358118466  -15.20437412559571   -0.38797530964295
C          -8.39333405543914  -15.23462692778008    0.97783617524305
Br         -9.37709305823360  -16.73203126653310   -1.22697576403361
Br         -8.69513521595417  -14.03509855705969   -2.99534821297605
H           5.50083235496104    1.42546814993711   -1.31921528815267
H           0.52746929271524    1.57407359687097   -1.37733465621710
H           3.66956210577527   -3.46365689153697    0.59198589891232
H          -0.21788188900204   -2.82868176792716   -3.69780262592204
H          -1.37613184798818   -3.18371199251681   -2.39219881609793
H          -0.50952299993814   -4.51899567768025   -3.20778275917043
H          -1.20331885484888   -5.24494785448886   -1.00568475740371
H          -3.96543366774481   -9.02885090293647    7.39488058950104
H          -2.26553836161656   -8.56519592106058    7.66811441692270
H          -2.68344603171175  -10.27763519505552    7.43449454663545
H          -4.65721249169033  -11.00144145260254    6.16384529600909
H          -6.07435298592099  -12.84398918317514    4.91621866817020
H          -7.62753393369446  -12.05044146155448   -1.13942688282654
H          -8.60865154737559  -16.11549380407074    1.56251059384774
