91
 SCF done       -195.732179986824          0.000606031732
C          -5.16737321848655   -2.66706903638038    4.39280006826143
O          -5.41383573692151   -3.63641579833004    3.69974650851943
C          -5.88532949695605   -2.26869531835581    5.62129647875416
C          -5.30457982214159   -1.09913962898704    6.14277534084755
C          -5.82218288711099   -0.53652137655262    7.29738950309386
C          -6.90844120234564   -1.15218170914008    7.91050649100418
C          -7.47549067166443   -2.31416141116274    7.38476999176834
C          -6.96129172318142   -2.88262560098603    6.22655486136432
Br         -8.94987258006011   -3.13070955054421    8.23966018955296
Br         -7.61465359048449   -0.38329293094833    9.48670340444844
C          -4.19007000974099   -0.70058025144076    5.28101555304470
C          -3.38183707870934    0.38582341958932    5.49147947484842
C          -3.52628075364071    1.27645440791444    6.57717318394162
N          -3.59309069841780    2.03314040363307    7.43738064074360
C          -2.29500403119039    0.77925359754600    4.68089681597354
N          -1.39475031084781    1.17352724464177    4.08720630623371
C          -4.11711379447656   -1.66337716284606    4.20116527030335
C          -3.21712749085546   -1.65023175744529    3.16364363205698
C          -3.08904543080554   -2.52574994502960    2.08166126933011
C          -2.08711907762572   -2.33358301596557    1.11435562051467
O          -1.20362211242063   -1.31585971145952    1.17333309722695
C          -0.48439463217717   -1.15224650717015   -0.03712445754529
C          -0.00780936082273   -2.50412273288983   -0.58357040283943
C           0.94893084806417   -3.19370643413104    0.38634011766055
O          -1.13479162764496   -3.33072856915263   -0.86731505141817
C          -2.09337403896510   -3.28175061076450    0.08645712503889
C          -3.13159463946571   -4.20427105433056    0.23131496234507
S          -4.04384424016521   -3.93466045608736    1.68690901236096
C          -3.47921903554234   -5.27182369720814   -0.64299388250822
C          -3.21254978408961   -5.25957997242630   -2.02988827805992
C          -3.48432450598544   -6.41205863861723   -2.84977578422406
N          -3.18127770634030   -6.37565198402217   -4.14784337423304
C          -2.66932530609458   -5.29743213911248   -4.68932702547574
C          -2.49845589833991   -4.12191006949717   -3.88746970692101
N          -2.77498391967499   -4.13465268615963   -2.60917133702432
C          -2.03419490373722   -2.91251314462702   -4.46426413540088
N          -1.64107525893338   -1.94557407045332   -4.93497422194957
C          -2.34810510483512   -5.33018361741778   -6.06675271758757
N          -2.09759822106771   -5.36577506090462   -7.18406788878396
C          -4.06886142907327   -7.60577353735420   -2.35472152636167
C          -4.48513892300980   -7.54935021729268   -1.00601711173898
C          -4.18013036175639   -6.40375839711486   -0.17373867456208
N          -4.65088933565736   -6.55466918795578    1.06277124641270
S          -5.42594042286405   -7.95230786589040    1.16343908591618
N          -5.19504039337859   -8.45702639070490   -0.33763856688601
C          -4.17837157646733   -8.72541979616798   -3.21759936941111
C          -4.44277474071512  -10.06306261826990   -2.92213688577215
O          -4.59175126355731  -10.56036371779432   -1.67838021265744
C          -4.43399300143320  -11.96793845706229   -1.63277712276378
C          -5.22842290369234  -12.65264854875755   -2.75127281887977
C          -6.72434559042613  -12.37548613390129   -2.62404993533960
O          -4.73448546595244  -12.21552841665731   -4.01505426576789
C          -4.46958331353256  -10.89446042317245   -4.06337449330320
C          -4.14131812679606  -10.22921082996199   -5.23441454391628
S          -3.86894862576337   -8.52911435451571   -4.91728403631562
C          -4.05047274367158  -10.77320475655876   -6.53306778492329
C          -3.35359215587512  -10.24114891916276   -7.57626689197671
C          -3.70065717484044  -10.57703123693318   -8.98209122806389
O          -4.39309737822684  -11.48775977152605   -9.36870670163314
C          -3.06700754149802   -9.50793139041449   -9.78881117666564
C          -2.28645766837281   -8.68413310782073   -8.95511299848375
C          -2.31762214126594   -9.22677708098685   -7.60137008264550
C          -1.36027922234288   -9.02298335484198   -6.64496399451917
C          -1.27844886852179   -9.78162532828556   -5.45747682074086
N          -1.14435843657454  -10.40341536152966   -4.50158266710753
C          -0.30777699859192   -8.09230996324171   -6.75925687515429
N           0.56632512056418   -7.34928113392265   -6.78077887398590
C          -1.63488152305228   -7.58043372102396   -9.47632648752430
C          -1.76362393614228   -7.32093971147465  -10.83589381226268
C          -2.51986490386330   -8.15452093355767  -11.66364243241697
C          -3.18363659674428   -9.25708711045035  -11.14050751769213
Br         -2.66047092425507   -7.78800151580714  -13.51159786650113
Br         -0.89380504917367   -5.80991025020739  -11.55782421359972
H          -5.41311275090818    0.35964645424381    7.73455121121732
H          -7.39065078104697   -3.77991853126383    5.80888695792609
H          -2.48391246676810   -0.85234696299767    3.14240308708989
H           0.35776601024373   -0.50170907518452    0.19786289166757
H          -1.12828964849616   -0.66898588504690   -0.78299543754164
H           0.47533034140105   -2.35562379710762   -1.55431950244971
H           0.49976418686171   -3.28306336711662    1.37347162467876
H           1.86554601230506   -2.61727992428530    0.46981976394712
H           1.18878130182855   -4.18851779278820    0.01968615681719
H          -4.79107172779857  -12.27748426795327   -0.65057889753612
H          -3.37044460621213  -12.22011528878674   -1.73856755075413
H          -5.03712336649463  -13.73006634019529   -2.73651081022762
H          -6.91043875639550  -11.30630614676312   -2.54490866936540
H          -7.11461752113330  -12.86542420766296   -1.73683607987498
H          -7.24392041812089  -12.75929599519398   -3.49826820282677
H          -4.64991243325264  -11.65370661590561   -6.73858812413378
H          -1.06539355545047   -6.90822872387266   -8.85442219895336
H          -3.77566714995886   -9.89968341425522  -11.77359521784683
