147
 SCF done       -263.975439337208          0.000487187888
C           7.89136517974707   -5.34365869219871   12.15206857708383
O           8.15076373402689   -6.52328093635835   12.09509953036586
C           8.87638685843931   -4.24667442866676   12.29645451512884
C           8.21380196954525   -3.00915323957614   12.35764247402033
C           8.94820933366370   -1.84427652427036   12.51176983962166
C          10.33246569219331   -1.93696478389662   12.59532218115537
C          10.98265592804917   -3.17127755922952   12.52447478171510
C          10.25014076618322   -4.34176355025216   12.37696112976137
Br         12.86730739911792   -3.26602374653472   12.63144296216225
Br         11.33578529050567   -0.34908150113678   12.81006852842157
C           6.77843382178928   -3.23995012154530   12.23442510650720
C           5.82393702476978   -2.26881539327644   12.09715760213620
C           6.09765582596376   -0.88440063897563   12.13030430403310
N           6.26467563944840    0.25053862099775   12.15568680627724
C           4.45269951055388   -2.51051445196986   11.86173665768027
N           3.33162943868523   -2.62441574388199   11.64267454543850
C           6.56300104307611   -4.67776233994369   12.18326464822031
C           5.36126456755172   -5.28997152263942   12.37149562221643
C           5.04426061671933   -6.68530646378833   12.26835975134800
C           4.03285107985063   -7.20371330004970   13.09360282755384
C           3.70909342147296   -8.53840874114309   13.05881543490014
C           4.33236865120342   -9.39981297025749   12.14894141132726
C           5.30411315711733   -8.87502532356541   11.29141518542878
C           5.66171608833105   -7.54863454255442   11.35311828816022
C           4.00371474724270  -10.82658348989953   12.13590709698372
C           3.85675467747229  -11.45230788320224   13.46020398492334
C           4.76970771005557  -11.16732514280971   14.47430870651157
C           4.62836543048069  -11.73858044188852   15.72490653787132
C           3.56682746569346  -12.58907007926928   15.98571487688701
C           2.64456562030108  -12.86400691622083   14.98890567144460
C           2.78654081252102  -12.30188512362016   13.73498570988957
C           3.85656124643177  -11.52489957500688   10.98092142148988
C           3.77336772659693  -12.99208939716014   10.95066083069023
C           2.84286976960999  -13.62390336971488   10.12671590356093
C           2.76666114368184  -15.00307432736350   10.08410697136199
C           3.62729930414881  -15.77152482457596   10.85034939424147
C           4.56915250542220  -15.15288221741956   11.65668834261074
C           4.64337514130707  -13.77463274748932   11.70884654473346
C           3.74628645978204  -10.85489589173801    9.68129437531790
C           4.43926176214733  -11.33722876459572    8.56828427675615
C           4.33519599551391  -10.71841283275845    7.34332337714525
C           3.49830665370441   -9.60450920157320    7.18311169645278
C           2.78032449351493   -9.13945369576618    8.29334945002676
C           2.90888885623579   -9.74721219875874    9.51924759255725
C           3.37168115211362   -8.95397274583107    5.90966824594179
C           4.11928966318066   -9.14027030005679    4.74687517679759
C           3.70443353906626   -8.28242734041583    3.65665594065457
N           4.27905966576720   -8.37095660281815    2.45029115524131
C           5.26043958663284   -9.23338244295574    2.31638311036429
C           5.89112970668764   -9.35716511970532    0.98573009306285
O           5.37666414196473   -8.94298675878660   -0.03825878884071
C           7.18820880981702  -10.05311262430505    0.98244697086237
C           7.62871147113266  -10.78980788516387    2.00778210094476
C           6.88520165137043  -10.94033862236997    3.27304598572718
O           7.22316102172467  -11.71982356229143    4.13764456304381
C           5.71960315167713  -10.03415561390520    3.41455658767485
N           5.14354997669741   -9.98762954722042    4.59141942640980
C           2.64220967438693   -7.44620791492255    3.99375632293077
S           2.16561714223516   -7.74022704809759    5.62814373479139
C           1.95439955902200   -6.50598991705660    3.15228477476240
C           2.62751087539043   -5.85929446825876    2.10769790596086
C           1.94431147249750   -5.03257414523354    1.24722052607732
C           0.55975132656219   -4.86510902589698    1.35920302609224
C          -0.09088318155711   -5.44183712472517    2.45437353499287
C           0.59502990557430   -6.23677900673593    3.34365837690623
C          -0.22654444803865   -4.14226647717349    0.35499089245656
C          -1.32497897133773   -3.31621594408819    0.88714528224863
C          -2.61341659108427   -3.40547314197537    0.36407838624136
C          -3.63497224118884   -2.63682117491295    0.88805941350145
C          -3.38734911496528   -1.76872179205663    1.93906521068773
C          -2.11283534122300   -1.68270809199718    2.47426714849892
C          -1.09013289174327   -2.45619167079485    1.95835738556662
C          -0.00118903305276   -4.25701942888957   -0.97920729713366
C          -0.72263546190276   -3.43144077839728   -1.96372269290303
C          -0.85917807819943   -2.05521086819911   -1.79451547254671
C          -1.52549435893395   -1.29834709309882   -2.73920449971702
C          -2.06569975759141   -1.90215243384852   -3.86305691424416
C          -1.92393303022285   -3.26786019272396   -4.04571201853272
C          -1.25031061448864   -4.02761406350759   -3.10816003519135
C           0.98511467895484   -5.17915903587150   -1.55073089906910
C           1.16600346336503   -6.47555883340082   -1.05893615679163
C           2.16457891360218   -7.28252088751445   -1.54853064656147
C           2.99351321623487   -6.85050135013342   -2.59372377528036
C           2.77974872814798   -5.56671932527050   -3.11437094376489
C           1.79404432187350   -4.75209757861196   -2.60804217163719
C           4.09232653514184   -7.62593873947651   -3.09438709228434
C           4.36910689371895   -8.94438701382119   -2.94751517752590
C           5.76606389673014   -9.41699574373307   -3.15413700726245
O           6.65060194005992   -8.85684244146304   -3.75332885979373
C           5.84595057169588  -10.68763154096280   -2.39608265176309
C           4.56789370336110  -11.02828807872973   -1.91876313780248
C           3.60289696198976  -10.06360337342588   -2.43668915547451
C           2.26940442982156  -10.29962564064080   -2.62399215416252
C           1.42202928254206   -9.40862520700515   -3.31757318823409
N           0.70868461587652   -8.72684218023132   -3.90220000735928
C           1.62719841435015  -11.48140289989155   -2.20120303482953
N           1.07312314617073  -12.42530280220699   -1.85643253638258
C           4.40915425966070  -12.09969681518779   -1.05887214264538
C           5.53929052248854  -12.81579540077982   -0.68124984305052
C           6.79860024100763  -12.49902482741560   -1.19138003874833
C           6.95944267636658  -11.42955135383123   -2.06364429473845
Br          8.31802251288531  -13.48526625355143   -0.65226641304719
Br          5.35427881886346  -14.21468863217062    0.57836764483264
H           8.48076430196594   -0.87505523049857   12.57523399499581
H          10.73944317590331   -5.30206034669068   12.32575338695802
H           4.53361615218067   -4.66532923201374   12.68979098794715
H           3.53164270015629   -6.54604949762517   13.78927825701322
H           2.95040202119418   -8.92897284747732   13.72161845308839
H           5.79745719140301   -9.52788939589924   10.58760039559097
H           6.40374688237953   -7.16698150225473   10.67211602213228
H           5.60151055650222  -10.50786551588147   14.27008771313764
H           5.34843873015107  -11.51860424979808   16.49932669013698
H           3.45599200088766  -13.03299553737438   16.96371089030532
H           1.80899600587116  -13.51768047389199   15.19097556606052
H           2.05978008600709  -12.50884195785463   12.96327972542716
H           2.16771399670390  -13.02528776996356    9.53148193913294
H           2.03505118163060  -15.48041481949704    9.44905174449090
H           3.56869090998087  -16.84899959992044   10.81464191468514
H           5.25144991319182  -15.74807872153647   12.24528894587264
H           5.38865544420707  -13.29608763842650   12.32656558827650
H           5.08177656358763  -12.19837560972086    8.67894609701305
H           4.89421818315467  -11.08436349457459    6.49753758343428
H           2.12317939005045   -8.28840987859217    8.18161179594877
H           2.34389665947845   -9.38007592598161   10.36329393568118
H           7.75572291064880   -9.96519842946746    0.06591933768962
H           8.56137470432802  -11.33525051763681    1.95257953142818
H           3.68584639356811   -6.02074135270426    1.98257802992023
H           2.48090404741358   -4.51820349106481    0.46446028161889
H          -1.15333593055480   -5.29158920552906    2.57814046933912
H           0.07420840872116   -6.70151278417540    4.16887027401956
H          -2.81268551905065   -4.09065007701963   -0.44642540039290
H          -4.63000669578211   -2.71693005837772    0.47600359958694
H          -4.18640266246275   -1.16552210089915    2.34339715869635
H          -1.91560963572552   -1.01231111429606    3.29785527343974
H          -0.09479566545458   -2.38760086257031    2.37472317211410
H          -0.42808136030211   -1.57928571627763   -0.92608795860219
H          -1.62180053143682   -0.23175530203814   -2.59925635462530
H          -2.59018226988762   -1.30881388592758   -4.59708285688382
H          -2.33713630699314   -3.74283172293287   -4.92312317821577
H          -1.14019402734347   -5.09328389699374   -3.25068149208529
H           0.52012247955689   -6.84398013119838   -0.27650771750636
H           2.34649097298845   -8.23474894302985   -1.07736892873863
H           3.40125006135467   -5.21663696732304   -3.92558049230871
H           1.65929632312234   -3.75741785742944   -3.00769759416416
H           4.87098783419936   -7.05891904174186   -3.59626433971248
H           3.44727271449837  -12.36760614756838   -0.65071344913894
H           7.93357902202490  -11.17121820981703   -2.45031433890691
