147
 SCF done       -266.469401086904          0.000883020030
C           0.06612653610187  -17.43589234320120    2.21893124431910
O          -0.98850097544387  -16.88353369392551    2.00604942422777
C           0.30267569413360  -18.89697059169573    2.16917944260569
C           1.65551886250362  -19.17473720887433    2.42709169923874
C           2.09882169383011  -20.48771894079903    2.42064135025175
C           1.18126947886168  -21.49872005888888    2.16018017286691
C          -0.16216777238678  -21.21200377826174    1.90712227493125
C          -0.60997783005961  -19.89770514372083    1.90799985701404
Br         -1.38709148934404  -22.60779304866475    1.55709648765292
Br          1.78567658565935  -23.28999735548805    2.14428061956917
C           2.35606200318432  -17.91658356545695    2.66463897668306
C           3.66069026838277  -17.79610091644722    3.06167128767254
C           4.53495064768746  -18.89020148724186    3.23918708964991
N           5.28931655573962  -19.74119469223035    3.39269677762613
C           4.30791848283192  -16.58119613259385    3.37503932257391
N           4.90119199385415  -15.64143556581147    3.66250103301212
C           1.39858998560898  -16.83599165773479    2.48864297047085
C           1.72225313338725  -15.51787741293898    2.37272685486031
C           0.84360262408422  -14.38746131656589    2.29644736930070
C          -0.39239861006695  -14.32990177578055    2.95480601988569
C          -1.18547816970764  -13.21097983471810    2.85536010924507
C          -0.78136495369137  -12.10210442253379    2.10493143527033
C           0.46036572429446  -12.15074432302460    1.45981210342916
C           1.26322104313119  -13.25898160593639    1.57186293101273
C          -1.66844691327800  -10.94668676081012    1.96677147080684
C          -3.09603852918386  -11.26822060146771    1.79668517361794
C          -3.48614475013948  -12.29122735863544    0.93400345834235
C          -4.82310975778512  -12.60494484223761    0.77820108546282
C          -5.78811865563226  -11.91254015766643    1.49051203234936
C          -5.40837718203100  -10.90720550497379    2.36499504732803
C          -4.07363493238332  -10.58595221282843    2.51884122840161
C          -1.21858076675993   -9.66576324083592    1.98623823995063
C          -2.08086154414587   -8.53304095662863    1.61331740638157
C          -2.09046548282851   -7.37440502480667    2.38836384692469
C          -2.88901280236780   -6.30276774378980    2.03634393543568
C          -3.67584767545805   -6.36513796209274    0.89815170558416
C          -3.65736499974576   -7.50493412217993    0.11057367270532
C          -2.86796951358397   -8.58206184498303    0.46384609321128
C           0.14331420319513   -9.30876537861546    2.39477438485930
C           0.84816223549000   -8.32054879608271    1.70351334328393
C           2.11858918766946   -7.95756776795585    2.08956841947934
C           2.72454866300956   -8.55065963792187    3.20120875705250
C           2.01466585700659   -9.53180421721111    3.89994974729667
C           0.74923059830183   -9.90264930609375    3.50384352637309
C           4.06009105312871   -8.14495649012321    3.61514141725272
C           4.43597869090711   -8.05267905041696    4.96771886411608
C           5.77683603955408   -7.68681952293612    5.37409048406967
N           6.10239674580216   -7.73059814373298    6.67983542486755
C           5.18763562900303   -8.00597871327164    7.56864535057442
C           3.82019902104996   -8.21618427529556    7.17157624030072
N           3.49445073157246   -8.25628481793901    5.90884331794103
C           2.81314229762967   -8.38755227422079    8.15372526538030
N           2.02604043435640   -8.52821488873689    8.97414853696910
C           5.54919207431905   -8.07886781675765    8.93688388912497
N           5.80428504301223   -8.13035370299130   10.05251312657257
C           6.77418146540394   -7.33972065135230    4.44322890053514
C           6.38915084919312   -7.40749711438334    3.09344494400349
C           5.05550701933572   -7.79993891539818    2.68666073205825
N           4.92993269616633   -7.79783267227154    1.35330266507401
S           6.31204594211834   -7.33565670566007    0.69566323638489
N           7.15664827271483   -7.11760632446121    2.03501544962774
C           8.12202821990387   -6.95946433785488    4.83945421625024
C           9.21821043631508   -7.33497828964296    4.05594042606501
C          10.49943106304621   -6.99793928349422    4.42811666240130
C          10.73881058623533   -6.25313072865343    5.58572816515711
C           9.64465249363369   -5.88025102875774    6.36968272841234
C           8.36253958548071   -6.22359686680149    6.00420663207657
C          12.11109426049480   -5.91988706528845    5.97572522004278
C          13.10733670325641   -6.98251744174406    5.76236891650756
C          12.81990692093888   -8.29684779580049    6.12648110411609
C          13.74771712143035   -9.30000359814940    5.91867136632310
C          14.96743026278668   -9.00878218151860    5.33058832503885
C          15.25373106819541   -7.70839268281757    4.94731357287897
C          14.33301556919263   -6.70099823365093    5.16123663377144
C          12.44941967612285   -4.71716474976003    6.50520059104827
C          13.77232012035914   -4.45575726079897    7.09648265446809
C          14.42950350109814   -3.25574095736002    6.82366026710286
C          15.66335413515196   -2.99092638063629    7.38728815249748
C          16.25359768804125   -3.91139438977421    8.23762796186227
C          15.59938516094274   -5.09785060336809    8.52790200823093
C          14.36790498886551   -5.37004090715850    7.96392722718406
C          11.54905387530017   -3.56233388408183    6.50857824528997
C          11.48591323309241   -2.73551351862580    7.63502104133730
C          10.75321162499549   -1.57396516299947    7.61444888002743
C          10.04786322157801   -1.19508566481019    6.46418936849203
C          10.05082677416870   -2.06159885042636    5.36448112240570
C          10.80570345040412   -3.21113849391081    5.37878521105558
C           9.32121500183569    0.04305826316381    6.40263142276220
C           9.62627689948943    1.21367923965219    7.01469654460263
C           8.58973912020440    2.27163778740794    7.15568254509506
O           7.52514186681911    2.33036755870478    6.58890447454909
C           9.12627765359932    3.19751953431032    8.17869016938954
C          10.43406342162010    2.80963757037609    8.52525994562506
C          10.82301904512538    1.66629119680073    7.70209997307659
C          12.11155565927654    1.28216149125576    7.44974603196011
C          12.49265044020994    0.35558735166517    6.45563701643181
N          12.88964516931244   -0.33043215151941    5.62576123907332
C          13.23490234387448    1.83749427019947    8.09883811469098
N          14.17689658601403    2.24594823921887    8.61072124066182
C          11.12663037668816    3.51231234468413    9.49696477475271
C          10.50438330281205    4.59760654778743   10.10273771485397
C           9.21179329310424    4.98591589767921    9.74201136721919
C           8.51133082307886    4.28055309649523    8.77188571766226
Br          8.39518180001369    6.47421723205518   10.57250799853174
Br         11.44220717337076    5.54962515075803   11.43973541003267
H           3.12858025563731  -20.74716804264470    2.60541138800164
H          -1.64442940677809  -19.66170218372960    1.71177615745875
H           2.77478992231529  -15.27259981841306    2.28528702254409
H          -0.71034301199760  -15.15367510448105    3.57158643253579
H          -2.13104720817660  -13.17724809242930    3.37626115186817
H           0.78140089325676  -11.31192597342445    0.86062810791635
H           2.21701074461411  -13.28448393081319    1.06467645031916
H          -2.73522945823008  -12.83178963212542    0.37527865782393
H          -5.11243831831420  -13.39452565162683    0.10062672609674
H          -6.83226713624274  -12.15940440330157    1.36959845348589
H          -6.15591297861726  -10.37323784750158    2.93279529336939
H          -3.78033430732658   -9.81201052782487    3.21259802115903
H          -1.48042385795641   -7.32686086883320    3.27936183997555
H          -2.89686024240678   -5.41510211391115    2.65156587822009
H          -4.29809885412463   -5.52674322289568    0.62302843782094
H          -4.26001304653682   -7.55367821944699   -0.78430793865245
H          -2.84665055762996   -9.46450180875342   -0.15842020136293
H           0.39046902080031   -7.84532591933269    0.84776754287939
H           2.64654812919944   -7.19253627793482    1.54315740649495
H           2.46703388500213  -10.01585342272941    4.75045405609890
H           0.21145194056628  -10.65144049884498    4.06626272873760
H           9.05666929719177   -7.91390953128894    3.16095356241255
H          11.33407446309595   -7.30296678708206    3.81365573660436
H           9.80854047569278   -5.32810535650799    7.28309963166480
H           7.53453304634202   -5.90942655438031    6.61892384363018
H          11.87004179297159   -8.52377135556813    6.58976454826447
H          13.51799254939704  -10.31273833893298    6.21545849864019
H          15.69103719500422   -9.79337159641046    5.16727899769103
H          16.19880267169522   -7.47878742576118    4.47783638240236
H          14.55380441668662   -5.69034068030373    4.85141940001448
H          13.97485237815466   -2.53460599724685    6.15897545378011
H          16.16379171462075   -2.06069630458940    7.16274535342447
H          17.21724071431002   -3.70263051154352    8.67774842207692
H          16.04916087636438   -5.81294485337081    9.20082592191068
H          13.85359814245682   -6.28825124901085    8.20637086722492
H          12.02546527322235   -3.01721670103949    8.52754902508102
H          10.69680392421649   -0.95744445895927    8.50047187110182
H           9.50199756970303   -1.78592494896771    4.47633924355039
H          10.84729742782497   -3.83795760391118    4.50099650480948
H           8.39330230019922    0.03974589746334    5.83939519906398
H          12.12317685481070    3.23619767323205    9.80236929747551
H           7.51136604832832    4.57026238497499    8.48861295041829
