129
 SCF done       -251.253014431121          0.000348938879
C          -4.75730037047425   -0.40635549622683    4.49333813626197
O          -3.56212752729387   -0.52443438043859    4.31462627897150
C          -5.43848249717399    0.86204120468927    4.83427717311906
C          -6.81576911508040    0.63728499517806    4.98350761579343
C          -7.64816279186261    1.69708570731607    5.30449782920573
C          -7.08740017979483    2.95890914172768    5.46914181722418
C          -5.71620273350717    3.16989765121855    5.31822865815302
C          -4.87747326608392    2.11092060890752    4.99730062014549
Br         -4.98283585292394    4.89721226729867    5.54675630109668
Br         -8.22505324575260    4.40554164826966    5.90556659759518
C          -7.08635933362642   -0.78060383992336    4.74457170598897
C          -8.33416640979054   -1.34802317364276    4.80027908652319
C          -9.51240827361045   -0.63234009516010    5.10470192644284
N         -10.50826586589345   -0.11448924148903    5.34475878646370
C          -8.66143432402260   -2.70154997215162    4.57031766493667
N          -9.03569728547787   -3.77471101698599    4.40159935905322
C          -5.82158216916227   -1.42667356999785    4.44023440441606
C          -5.70907771788767   -2.77099794532182    4.16683076677904
C          -4.61159256719903   -3.57139976062045    3.82468099494516
C          -3.25639072120285   -3.30426993375023    3.62130180191249
C          -2.51049889556014   -4.41297834482075    3.27137946023591
C          -3.30781309651767   -5.57783601922286    3.20055638514830
S          -4.95158178289290   -5.28437873777453    3.56453014882822
C          -2.63002584685729   -6.75895944020890    2.84330823257850
C          -1.24773613320902   -6.61621760118672    2.61332095304202
Si         -0.72767853100612   -4.83253680904331    2.86545530705405
C          -0.08552146615824   -4.05560533220528    1.29946562642219
C           0.13889177929459   -4.80081833565340    0.13828921169692
C           0.65246069192313   -4.21241027439818   -1.00226563578699
C           0.95211162884544   -2.86069053122844   -1.01139778482150
C           0.73594063297986   -2.10127724825597    0.12701652331870
C           0.22600131984166   -2.69229740059283    1.26674309936265
C           0.40732600127257   -4.56232716375587    4.31814128575478
C           1.78918888673418   -4.72125386165035    4.17046825153820
C           2.65154963697277   -4.51469526309778    5.22987796914809
C           2.15344158456408   -4.13955985859659    6.46696868663399
C           0.78918149172367   -3.97341027335338    6.63646008501632
C          -0.07185412888946   -4.18348682111922    5.57578735673042
C          -0.67381745715057   -7.82119529381773    2.24606376976874
C          -1.57544866660573   -8.88243680124321    2.18464387755826
S          -3.19050700836920   -8.36796383745152    2.61566912800837
C          -1.33697263921723  -10.23290661384952    1.81769063212788
C          -0.08616969349628  -10.73429781195402    1.37511330397839
C           0.07736990641530  -12.11749379043136    0.99484386623354
N           1.27330059724837  -12.55775110762138    0.59221162118937
C           2.29615997000696  -11.74078075790292    0.52944066796313
C           2.12891646519736  -10.36594443989745    0.88585214189819
N           0.96776240846795   -9.91171412283044    1.29242012381039
C           3.21765433649058   -9.46140673285969    0.81151977951432
N           4.10494043180102   -8.73978570392599    0.74935065121591
C           3.55595138740224  -12.23651743509016    0.11418137711658
N           4.58894809468134  -12.60842538566323   -0.21227064308777
C          -0.97646482809164  -13.06446865985842    1.02280366092403
C          -2.21976262694332  -12.56698222137508    1.47866277558969
C          -2.38241789905082  -11.18548869741028    1.85960304661906
N          -3.62930836733987  -10.92666728797489    2.25025665917246
S          -4.50803332333112  -12.26577811620697    2.15427885508301
N          -3.35908199003575  -13.24678511581288    1.61273985973182
C          -0.77274952053675  -14.40136428924503    0.60423038937514
C          -1.71227941841331  -15.43181246627382    0.58661511998202
C          -1.21810120636821  -16.63079756936009    0.10220848471714
C           0.13644850158781  -16.50628574111321   -0.26594841644137
S           0.77734650650372  -14.93230290756522    0.00090079072279
C           0.72595124423322  -17.66936094844017   -0.79335615476822
C          -0.09474499783040  -18.81043384677203   -0.85076570929536
Si         -1.81855655120110  -18.37024993264611   -0.25529969365840
C          -2.34460178558964  -19.28108201735823    1.28204156692560
C          -2.06595358481261  -18.78902043080724    2.56103157218294
C          -2.45640192535756  -19.47640813119308    3.69476887661454
C          -3.13705809658018  -20.67689615714923    3.57891906339120
C          -3.42573208044009  -21.18392101007753    2.32244404400059
C          -3.03395580868429  -20.49411796567631    1.19106954262993
C          -3.04264791801115  -18.46282609794755   -1.65531559690490
C          -2.62378327107562  -18.45727198199453   -2.99100227045901
C          -3.53903192069571  -18.51941904204783   -4.02498600723485
C          -4.89517706842760  -18.58666411794637   -3.75213772519819
C          -5.33220401779545  -18.59122760167782   -2.43745164442204
C          -4.41694405087348  -18.52971444155546   -1.40419064327206
C           0.58574028367034  -19.89327217779447   -1.38354789982772
C           1.88244982372536  -19.59967555121668   -1.79294490937426
S           2.29737999384440  -17.93575907593239   -1.42548682455459
C           2.79591453746878  -20.49510740951641   -2.38506882589808
C           3.88453013804543  -20.20201389431244   -3.15480361567412
C           4.98856811975390  -21.18282938016612   -3.29698985139217
O           4.97858494790298  -22.34894158921221   -2.97958444827496
C           6.11746915812432  -20.40290956829689   -3.85693812509883
C           5.68477062081016  -19.09745665742463   -4.15614676517563
C           4.25477246864407  -19.00142991192376   -3.86993021561826
C           3.39517157218089  -18.09873606691180   -4.44078981587646
C           1.99140456264934  -18.21923960456358   -4.38083092858013
N           0.84697043480047  -18.31182240927903   -4.39830426325520
C           3.81524201809793  -17.01546789204423   -5.23905951279949
N           4.11223542377297  -16.11829373966631   -5.88979289957738
C           6.57924415210077  -18.16927062697081   -4.65841758961295
C           7.89744203034497  -18.56267918746944   -4.86271470735667
C           8.31598413138194  -19.86437801067618   -4.58004150467999
C           7.42150664876218  -20.79747873394855   -4.07016123459916
Br         10.11009747027158  -20.37576080402567   -4.88233812052852
Br          9.12923418267776  -17.29637883380272   -5.53391680068222
H          -8.71163404378166    1.57807757234943    5.43058866544939
H          -3.81524168184051    2.25727116471150    4.87725691667800
H          -6.63502177041837   -3.33115033941666    4.21552541937319
H          -2.85072250873364   -2.31597558839061    3.73407060741275
H          -0.09013944552131   -5.85697842563983    0.13688975643752
H           0.82210389610240   -4.80981042574579   -1.88620649195236
H           1.35435623447550   -2.40069612586300   -1.90185107788102
H           0.96879464155937   -1.04652225867304    0.12529815431697
H           0.06525187420727   -2.09529523113710    2.15286021898163
H           2.18576471160655   -5.00687297450643    3.20662454335851
H           3.71490158486540   -4.64369582152601    5.09117789330384
H           2.82668399571810   -3.97465169787760    7.29521782458095
H           0.39589844502241   -3.67679789766524    7.59795735038828
H          -1.13463541544435   -4.04616436596496    5.71606543466388
H           0.36873735541606   -7.94871573995622    2.02324866383980
H          -2.72120433401461  -15.27763972732173    0.92252259149098
H          -1.53838673883689  -17.85084945945723    2.66019512980562
H          -2.23027894251470  -19.07578343337025    4.67238675078401
H          -3.44248639011380  -21.21489357167160    4.46414165782575
H          -3.95787773464051  -22.11910217439645    2.22621462863529
H          -3.26606342263459  -20.89368811389613    0.21407959496309
H          -1.56925594544590  -18.40852400840601   -3.22001357878738
H          -3.19096853392118  -18.51667577409554   -5.04720913677752
H          -5.61009388762364  -18.63617548581301   -4.56031351365053
H          -6.38892445272843  -18.64328419150492   -2.21855995003439
H          -4.76459366755525  -18.53718825450517   -0.38061699958572
H           0.15286419035143  -20.86758773757253   -1.52528224676298
H           2.65789448122510  -21.54554751402645   -2.14747968703416
H           6.28704721240494  -17.15529667789500   -4.88052350497346
H           7.73774392148310  -21.80449344820851   -3.84653018667072
