85
 SCF done       -188.325782205881          0.000876890059
C           2.76429489738721   -2.37672687367090   -3.16768877348515
O           2.64737837456542   -3.57986938697018   -3.02087595336354
C           3.77405828644020   -1.69210041608861   -3.99482234550891
C           3.56721137870640   -0.30233817345731   -3.92844172740644
C           4.41307184227813    0.54693691911952   -4.62229835344648
C           5.44790434792669   -0.00597604996729   -5.36934070215174
C           5.64138746317566   -1.38841281633968   -5.43099294760091
C           4.79652173542419   -2.24511854723471   -4.73737247549664
Br          7.05561102927291   -2.11192569502306   -6.45340324143692
Br          6.60579321493907    1.15480238439032   -6.30905636768765
C           2.41532770937188   -0.03589394263872   -3.06721228890963
C           1.88122573802002    1.20054821638092   -2.82489396180876
C           2.39166467781072    2.40037866829207   -3.36856194729244
N           2.76246887314732    3.40589389844438   -3.77771946793610
C           0.74708077499074    1.46516439513142   -2.02595363814175
N          -0.16959516348268    1.76054959129777   -1.40159748968688
C           1.95081898825404   -1.31720259358183   -2.56212583757554
C           0.96720927288660   -1.50625701881239   -1.62585314726109
C           0.47407301883809   -2.68891589444497   -1.05178447110295
C          -0.47993834691442   -2.66339074795467   -0.02595957514364
C          -0.81113934244826   -3.92871541588360    0.41816302021425
C          -0.12132219081664   -4.94177800883682   -0.28931634193532
S           0.94222843328229   -4.33657366027415   -1.47001829189937
C          -0.51153521982716   -6.19659667077721    0.24832322288414
C          -1.43134629593170   -5.97485385004363    1.29374137414303
C          -1.65574722163138   -4.54672063887200    1.43091176059919
C          -2.47212647111607   -3.92173971037100    2.32656655987835
C          -3.22873661193143   -4.64009892168606    3.27755653886113
N          -3.83820008643637   -5.22719437001676    4.05078229310487
C          -2.60661897585056   -2.51722980348227    2.36828226227101
N          -2.71515049930256   -1.37689000667322    2.40511022632305
C          -1.84668993716729   -7.15892500874775    1.90124223713151
C          -1.25260263132138   -8.25616023149990    1.31253797391289
S          -0.17772916534812   -7.85114105942248    0.00334552073347
C          -1.41942132701971   -9.63087974827863    1.69000366360449
N          -2.15189033595555   -9.88982155027717    2.76817845482924
C          -2.24415727115384  -11.17511881090141    3.10210282149996
N          -1.68887295963122  -12.17767897831597    2.41367098820725
C          -1.00024745942431  -11.80549218155361    1.35329739129864
N          -0.81408544884215  -10.56461122065208    0.94843649706242
C          -2.97235033465889  -11.47284140679865    4.30098115690912
C          -3.16715872065859  -12.69874738277237    4.90195143752010
C          -3.87927540937872  -12.56663434849215    6.09410716980695
C          -4.22190467631722  -11.22730200882455    6.37415777414044
S          -3.67210857486816  -10.14102123965394    5.18317187125152
C          -4.91949369113207  -11.19009749060625    7.61070896858437
C          -5.00319877259449  -12.50392749298526    8.11260198451421
C          -4.37252424480342  -13.41215529597298    7.16735698670226
C          -4.30194744112676  -14.76987205162378    7.27224050124213
C          -4.85830014640741  -15.44442447234941    8.38029779053565
N          -5.31345368299866  -15.96986864238403    9.29219588272470
C          -3.67938918031917  -15.57550926820401    6.29492138788740
N          -3.16962271044273  -16.23538078294366    5.50879088492569
C          -5.66727198669244  -12.57754835182582    9.32877173247267
C          -6.10781220467575  -11.33320861514512    9.76093777000721
S          -5.65170175085285  -10.05462204503625    8.64136593835372
C          -6.77988193496239  -10.99379500051872   10.95441228617466
C          -7.43373557836198  -11.80039338976473   11.83686073887557
C          -7.67212192620867  -11.28794978417012   13.21661267740426
O          -7.55342143856233  -10.14820906438864   13.59595247873476
C          -8.02182249702657  -12.48290355236875   14.01324509728020
C          -8.12124968937928  -13.60044056285450   13.16391924803337
C          -7.91181647738310  -13.16679599299056   11.78250107546750
C          -8.34952968578651  -13.84816967544010   10.67835558372731
C          -8.35499272210972  -13.31007560948214    9.37597653310487
N          -8.39773660357666  -12.89579426011515    8.30652518005209
C          -8.93597281500057  -15.13182965030000   10.72967366344972
N          -9.42197386584992  -16.17037175406385   10.72373621211039
C          -8.39507130726795  -14.84893680938037   13.69489331475850
C          -8.57899116520983  -14.96000169162654   15.06885669757262
C          -8.49857075083826  -13.84191037341742   15.90352139172619
C          -8.21427211820975  -12.58904349779902   15.37519063495364
Br         -8.76691661560143  -14.01706902949534   17.76529880562288
Br         -8.93957618726227  -16.66476437351349   15.79844893510212
H           4.29878127434258    1.61845947243078   -4.59886316682705
H           4.93559697633076   -3.31447551587838   -4.77482064740605
H           0.49417650150784   -0.61685953136070   -1.22693655273462
H          -0.88418320863005   -1.74343399254953    0.35817323014146
H          -2.53410401331282   -7.24896039328248    2.72214400661021
H          -0.53931114570766  -12.58947910840040    0.76601131345304
H          -2.79482021087607  -13.61374853791101    4.47880474809194
H          -5.78456774246422  -13.47548092660237    9.90682183331988
H          -6.71021982139343   -9.95431642523927   11.26137402052351
H          -8.45517901213972  -15.73249960557288   13.07981922915894
H          -8.14419977041741  -11.72078652574342   16.01184873466130
