98
 SCF done       -203.990239302247          0.000996817130
C           1.84966993204875   -1.21809643091040    4.45455697172429
O           1.21095129241751   -2.19481830923221    4.80538988392229
C           2.27653563658792   -0.10297409873949    5.32007815884934
C           2.97471173315567    0.84314813261855    4.54913379703017
C           3.47704530793507    1.98093598700167    5.15789027530000
C           3.27399061181535    2.15182728504491    6.52345123710503
C           2.57878038915091    1.20531641323031    7.27859425925697
C           2.07137720937620    0.06272594113088    6.67358126427113
Br          2.31963767700690    1.46392031255065    9.13250580898135
Br          3.96331811142630    3.70340540775567    7.35467482013485
C           3.02303205286560    0.37854058902471    3.16206453245321
C           3.58478453491750    1.06930072667423    2.12131815203303
C           4.20883018112953    2.32866128220081    2.25674876695852
N           4.72924149819484    3.35006522168993    2.30440260833902
C           3.61503696350103    0.64960583970317    0.77385790924001
N           3.67323631881208    0.38553717980686   -0.34170119003370
C           2.35298123243023   -0.90778056260427    3.11529523720740
C           2.24459360812868   -1.72232836072314    2.01342168517441
C           1.62590323245335   -2.96961302810221    1.86482726922918
C           1.66379822280141   -3.67484672839424    0.65238205163223
C           0.99020177392902   -4.87689649214799    0.71709783813789
C           0.41353864326365   -5.09830924979201    1.99370753070404
S           0.71962251518456   -3.84561503454425    3.10165358556463
C          -0.25313130204312   -6.34490343138626    1.96038234545697
C          -0.10230676786295   -6.91397287136263    0.68195922853860
C           0.68663579382771   -6.01360419781490   -0.14071969460230
C           1.06749381355755   -6.20761394819875   -1.43595105219123
C           0.71287097577655   -7.37108715316493   -2.15011892051905
N           0.43158122337457   -8.31845763661048   -2.73202874975175
C           1.84508464283154   -5.26523220933201   -2.14235081981318
N           2.47867486415069   -4.50398449022970   -2.71926995016524
C          -0.73232309746431   -8.15006322545420    0.55854876511005
C          -1.36650723380634   -8.53584533520391    1.72454557383831
S          -1.17223579322909   -7.33390527792192    3.00081420751541
C          -2.11895378706354   -9.72877288448735    1.98435664565625
C          -2.74940774015711   -9.90545426681295    3.21045425347946
C          -3.49403403780601  -11.03251989650932    3.50211396782090
C          -3.65644752732267  -12.07105873160027    2.59273198005816
C          -3.01265933017237  -11.93826786205605    1.32388300019896
C          -2.25738166792321  -10.77397673723626    1.01953117217951
N          -1.67001478745879  -10.66328136493015   -0.18690347314862
C          -1.78927716194123  -11.62027762466486   -1.06895904477025
C          -2.54029225582038  -12.79371462227246   -0.75970921236922
N          -3.12254088034798  -12.91541860575198    0.40409939508737
C          -2.68829569344575  -13.91015010802179   -1.73275328073667
C          -1.12314043515716  -11.43922992741384   -2.38748067811070
C          -4.45249761521624  -13.21326963753382    2.93548208078194
C          -4.66329650673844  -14.37126998798788    2.20918233947038
C          -5.51311907249907  -15.25973171978568    2.86244168483185
C          -5.96063637411419  -14.77614587856053    4.10543512840193
S          -5.32865725694759  -13.23395015868982    4.46466085244459
C          -6.81308920445314  -15.74250760414394    4.68398495027279
C          -6.91129226754770  -16.84510478724305    3.80641219988113
C          -6.09646520329326  -16.57252551886400    2.63298554878141
C          -5.92368822292792  -17.36569285809179    1.53704130018509
C          -6.55200859658953  -18.62334353933539    1.41230102125184
N          -7.06655328357832  -19.64201686723005    1.30558404279043
C          -5.11706871176019  -16.96979486021298    0.44950671366835
N          -4.46817484202626  -16.64931998815873   -0.43997149895184
C          -7.75212728025899  -17.83878432043979    4.28818500928677
C          -8.27673578398073  -17.53083004707199    5.53844468630323
S          -7.73979215025957  -15.94269771922693    6.09342975308617
C          -9.21957833615540  -18.30236590174149    6.24587572381064
C          -9.65295454921088  -18.18093116871357    7.53403244195835
C         -10.98515047868446  -18.72336948140603    7.90911984160711
O         -11.66807196196696  -19.49036556020497    7.27412973367844
C         -11.31466085913484  -18.06149253503319    9.19332805654832
C         -10.21370266435981  -17.29905706078041    9.62572397811724
C          -9.11222781292585  -17.49225637338844    8.68456514459321
C          -7.78490374284958  -17.32185899041228    8.97941512702733
C          -6.74745650545885  -17.80781043409591    8.15651751923084
N          -5.88679353209819  -18.23088059146199    7.52613137245489
C          -7.31639639061750  -16.73293265994572   10.17125151413154
N          -6.89540101794262  -16.23983176856586   11.11784084284495
C         -10.30024868384290  -16.55552714486461   10.78922885043969
C         -11.48967518766021  -16.58757183673731   11.50898545341609
C         -12.57317952324117  -17.35847341472651   11.08279342336508
C         -12.49008540980905  -18.10465456050810    9.91340109976225
Br        -14.17217245151182  -17.39046065997810   12.08982204509340
Br        -11.62489500463749  -15.55673537360789   13.08729591686905
H           4.02044023701663    2.73421544845540    4.61133342881913
H           1.53258585587572   -0.67701795314428    7.24501688254877
H           2.71400953120290   -1.37347359461629    1.10154210603288
H           2.17257490517970   -3.29225726639819   -0.21495504137664
H          -0.75098149194202   -8.76901095105899   -0.31886003339403
H          -2.66109580233810   -9.13483021502776    3.96252647552344
H          -3.96299740317911  -11.10606275769948    4.47276703879502
H          -1.70990948406270  -14.30769577171709   -1.99793186098355
H          -3.15915804723216  -13.55238436829618   -2.64694467264396
H          -3.29234277525912  -14.70529593016312   -1.30486220616124
H          -0.40193251268746  -12.23730781192841   -2.55670412068342
H          -0.61273659367364  -10.48081479954339   -2.42327343553588
H          -1.85932351604189  -11.48284952092149   -3.18867013988126
H          -4.20158235894017  -14.52043362145232    1.25104859392709
H          -7.97237960411556  -18.76287649598502    3.78452233732789
H          -9.75063537342806  -19.04024181847391    5.65150388921070
H          -9.48260506589323  -15.94756677379730   11.14232088249546
H         -13.32309450971967  -18.70146440504660    9.57579786410909
