100
 SCF done       -241.345437732789          0.000835234138
C          -0.42068431041330   -0.09822878221192   -1.21460676135419
O          -0.68578209056144   -1.03169394688201   -1.93825890463240
C          -0.11808009712635    1.27695163921810   -1.66208085025026
C           0.12846591379163    2.09921244705979   -0.55029457734371
C           0.42560531131385    3.43876566065572   -0.74495931607955
C           0.47313370179571    3.92857476578097   -2.04510056154746
C           0.22954296341762    3.10020952036040   -3.14385902405963
C          -0.07108110995450    1.75796899836365   -2.95408685454911
Br          0.30412985064566    3.79494975278121   -4.89851555623295
Br          0.87480102981284    5.75636350804311   -2.30922374143181
C           0.01346901408249    1.29543388395321    0.66423872674389
C           0.27919332723664    1.74784055854707    1.92908843133734
C           0.65435603451355    3.07668334077086    2.22874293593603
N           0.95763128998585    4.13844238543452    2.53966737966952
C           0.25077389832996    0.98031263069736    3.11429914982319
N           0.26804004500852    0.43170203464639    4.12277058124820
C          -0.36683879014213   -0.05311731285206    0.26651872336576
C          -0.69938398826030   -1.04099950546462    1.15321804157533
C          -1.02636778216315   -2.39844706650414    0.96171967199855
C          -0.99337450954804   -3.23369017008627   -0.15013058868468
C          -1.37130718371684   -4.53150079243755    0.16254458308545
C          -1.70604844420893   -4.70149856964449    1.52698247684767
S          -1.53766758171118   -3.26795303016243    2.41791545578707
C          -2.08461671285743   -6.04831811241144    1.74438080670688
C          -1.98321738172300   -6.73258259808712    0.51269136550087
C          -1.53729440946589   -5.80550518485540   -0.51805390510629
C          -1.32744943928266   -6.08504126439095   -1.83499680956956
C          -1.56472994133994   -7.37438107057432   -2.36026079326049
N          -1.77188690252273   -8.41984400872389   -2.78146881415572
C          -0.86150789689468   -5.12903607899052   -2.76465416959521
N          -0.47063532220349   -4.37874602824863   -3.53728718444522
C          -2.31846270568913   -8.06896051130622    0.63121214779959
C          -2.68807741628408   -8.41314151531408    1.93415360778399
S          -2.61677327147255   -7.03636885696329    3.02800535168016
C          -3.05770373227362   -9.72817825663752    2.30209649056911
C          -3.53021817115413  -10.27830520101580    3.49476671748231
C          -3.71695884561892   -9.52109819783477    4.71020235223622
O          -3.46767444771029   -8.32812920104193    4.82229561525502
C          -4.22692527528600  -10.30614245308616    5.84639930471898
C          -4.51517461457223  -11.69192114464761    5.74834683679274
C          -4.96810633775276  -12.20638151169231    6.94150538024074
S          -5.04905548993346  -11.02775595696224    8.18682632077721
C          -4.47314962532408   -9.82088060425605    7.11028751832503
C          -4.29290989718454   -8.41763934135741    7.60449014258135
F          -3.02542442231156   -8.00388941875993    7.52876091916173
F          -5.04957517819413   -7.53778572068909    6.94311945654558
F          -4.64611259773349   -8.32502128181935    8.89805081579887
C          -5.36646227552972  -13.62056054582353    7.23685333614736
F          -6.41736140023285  -14.02151871563343    6.51622679092526
F          -4.37347866592859  -14.48864727124762    7.02735318071446
F          -5.71993738398441  -13.75072057513603    8.52698175114774
C          -4.34296811512918  -12.44936415623621    4.49827954359502
O          -4.65085828771249  -13.63175784250648    4.42331288441874
C          -3.80857330975118  -11.67924540954523    3.40027379194319
C          -3.51786559014612  -12.21646874950387    2.14514969434738
S          -2.93096758435498  -10.96635885279520    1.07760807867721
C          -3.59040281105030  -13.53089797430753    1.62777985659098
C          -3.11882440950766  -13.87124448905169    0.35696986192371
C          -3.29063896924592  -15.21346532128936    0.07242199179434
C          -3.91574200815646  -15.90591986623391    1.13312084874696
S          -4.26458166158111  -14.91764731849651    2.47674433513306
C          -4.04873176236228  -17.26155029728292    0.74660750846519
C          -3.51809535257506  -17.42777899090137   -0.54975916210883
C          -3.01570644608978  -16.14482203790679   -1.01250009194557
C          -2.40770005477542  -15.87103298902319   -2.20103026308525
C          -2.20375497911862  -16.86117807171773   -3.18629030077028
N          -2.04572490843196  -17.66220803548935   -3.99058785047108
C          -1.94295723707461  -14.57564479303516   -2.51633112433560
N          -1.56417346625530  -13.52214626284808   -2.76144467404791
C          -3.62971091448206  -18.73346401917500   -1.01306064294134
C          -4.20549792878834  -19.57704923590580   -0.07273214854876
S          -4.66089365746771  -18.70950911986155    1.39239042172987
C          -4.51111049274625  -20.94211496842597   -0.27851737623333
C          -4.83687225548718  -21.90893100570174    0.62146291828714
C          -5.58312815771173  -23.11245310334969    0.15640947677665
O          -5.74300849608095  -23.47331421252856   -0.98351419733648
C          -6.13102223575071  -23.71706408411311    1.39105003645261
C          -5.63781664779869  -23.02631840532067    2.51408987399327
C          -4.70105708673264  -22.00054105418223    2.06075907681182
C          -3.69190507044989  -21.46532540439325    2.81496679325120
C          -2.63539309788874  -20.71139477103161    2.26164793362850
N          -1.74518017851082  -20.12912321638768    1.83115362548871
C          -3.54393586918501  -21.69494255790806    4.19910453065020
N          -3.39595946825524  -21.84937186070690    5.32590994667432
C          -6.04336997740250  -23.39360630673569    3.78524050920835
C          -6.93341233238802  -24.45379282425906    3.91709997584441
C          -7.40610426057972  -25.14607359900256    2.79887156708552
C          -7.00517352244876  -24.77637203625112    1.52102101153464
Br         -8.60660167176535  -26.58943765329490    3.00830477230067
Br         -7.50344165901432  -24.94927897824283    5.64867266489323
H           0.61689367685307    4.11167239741299    0.07475245959143
H          -0.26209165266976    1.10438239444760   -3.79113587700133
H          -0.72936906663750   -0.74890603547822    2.19641920359584
H          -0.71117523896958   -2.88593672302173   -1.12769961163149
H          -2.30767915777623   -8.78081307083279   -0.17545869452157
H          -2.66720813673228  -13.15379608342658   -0.30562904989200
H          -3.29226787029336  -19.08276996455463   -1.97227118653708
H          -4.57990399626334  -21.24557270637551   -1.31955812270983
H          -5.69963712261814  -22.87713661321394    4.66726522892845
H          -7.36768623296645  -25.30271504298733    0.65167599832335
