94
 SCF done       -207.058495377226          0.000742576550
C           1.80331630155222   -1.27825575749450    3.66615043419787
O           1.27373182761305   -2.24221688662666    4.19076374284451
C           2.39416661133417   -0.12366152175987    4.36663551945781
C           2.91001196723339    0.78025840660297    3.42108916974550
C           3.51654835923447    1.94717402524114    3.85501283150443
C           3.59571607796620    2.18967200801280    5.22251054211680
C           3.07920490129091    1.28428413480638    6.15205867085074
C           2.47053773987741    0.11194493285507    5.72329820403648
Br          3.20046281735141    1.63876969380529    8.00403502452857
Br          4.42394395368425    3.78318532517754    5.81218405095840
C           2.67272584300412    0.24683024532110    2.07903508917559
C           3.04828118948364    0.85868126366634    0.91305459174850
C           3.71844573709031    2.10050745049849    0.85480276557144
N           4.26565603095179    3.10284181886864    0.74406521020214
C           2.83307717070602    0.35768155609703   -0.38930693946606
N           2.69472697604595    0.02291195736585   -1.47866928538815
C           1.98411946449224   -1.02198522259324    2.23548494620435
C           1.56156117050070   -1.84327715862083    1.21858912593170
C           0.89248225507510   -3.07385301758337    1.26395919007785
C           0.52853874234755   -3.75944591384154    0.09531876621254
C          -0.12250133375085   -4.94738787949363    0.35858952918150
C          -0.25908656221514   -5.18339823662436    1.74947610125602
S           0.40336267730152   -3.94977874520023    2.71575913111431
C          -0.93523244673919   -6.41273147905941    1.91752204290089
C          -1.23124060329264   -6.95668450513539    0.65289908228836
C          -0.73460000380115   -6.04976952134117   -0.37017988884370
C          -0.83613019355950   -6.19565827391805   -1.72133521938687
C          -1.48836661650051   -7.29989380044798   -2.31186640259744
N          -2.02896898492927   -8.18526763418620   -2.79900175965714
C          -0.31057621718085   -5.24243614642695   -2.62051771240675
N           0.11123434349345   -4.46933078593372   -3.35394779604458
C          -1.89952392184302   -8.17628521820083    0.72614618578391
C          -2.12254069068366   -8.57244450023908    2.03620740955192
S          -1.48904494265196   -7.40095976267001    3.19152457991406
C          -2.79173919084146   -9.73425867913579    2.52031625812632
C          -3.19414071777148   -9.84114072683449    3.81543116771827
C          -3.89214997772705  -10.96169637570083    4.31968922975715
C          -4.07910500578106  -12.09599603515015    3.59429959483732
C          -3.45294175373688  -12.20643806103511    2.21836023060245
C          -3.15213432782099  -10.84406331060137    1.54385780527287
N          -2.11999759916492  -10.94053124746600    0.53908089397480
C          -1.25509252460484  -11.84937514885720    0.61959892352820
C          -1.28810713564476  -12.88380161187789    1.67052679279998
N          -2.29249561177507  -13.05199088511380    2.40676975458825
F          -0.21166945237252  -13.63712546811476    1.84560616097037
F          -0.28430982659049  -11.90050485047758   -0.28044963274378
C          -4.71548279242800  -13.25202280706581    4.12503059550684
C          -4.85278172424105  -14.50239406855717    3.54107487843538
C          -5.50982664727295  -15.40381874650558    4.37352496981673
C          -5.88343823960796  -14.84059156130897    5.60837155461331
S          -5.42497602612431  -13.20315779485122    5.73537803129119
C          -6.53172651910806  -15.83060911380277    6.38323080021784
C          -6.56535186257900  -17.02813468389895    5.63589412904472
C          -5.94200253550835  -16.79273618489805    4.34482483451484
C          -5.83587654400779  -17.67926708914940    3.31413822350532
C          -6.33523583096646  -18.99441168236771    3.42709469946584
N          -6.74802371709258  -20.05769710792619    3.54332317513898
C          -5.24037347546245  -17.32878406693094    2.08406833305219
N          -4.75751303322220  -17.03179507565313    1.08771817836653
C          -7.20196514565752  -18.06356887772963    6.30329295935060
C          -7.66480028907459  -17.67687487702078    7.55542532625645
S          -7.26340925939126  -15.99786273467280    7.90826855488544
C          -8.32777814999911  -18.43869415681635    8.53724411129995
C          -8.97171071645806  -19.63562716459410    8.41714663141488
C          -9.20855598866118  -20.43422025047403    9.65160265003749
O          -9.08015517832015  -20.05952139950280   10.79256427585424
C          -9.57824510314801  -21.78261742942136    9.17151421811825
C          -9.68199951258975  -21.76795467672228    7.76835998479818
C          -9.45484452727114  -20.40364165360547    7.29005019612219
C          -9.88567960108519  -19.92275485370279    6.08144957823512
C          -9.88351869834776  -18.55849855421117    5.73110136959973
N          -9.92227299708047  -17.45543277377175    5.41547713704545
C         -10.47818235507777  -20.72572675037033    5.08263750096865
N         -10.97142637472971  -21.33476223629156    4.24541991852570
C          -9.97726204565797  -22.93537783896266    7.08626741387791
C         -10.17821888439144  -24.09992209086062    7.81961237179712
C         -10.09288143449293  -24.10198826050046    9.21407157419109
C          -9.78675951387022  -22.93424543255898    9.90149323438755
Br        -10.38493861522438  -25.69549802686436   10.18610110699408
Br        -10.56998058866139  -25.69871796515876    6.89243740762712
H           3.92727673127968    2.67151293624755    3.17085449489946
H           2.06736252446649   -0.59651429878860    6.43014247329897
H           1.76084597500039   -1.50994500651187    0.20732480677135
H           0.74682407440651   -3.37301805144448   -0.88469637839849
H          -2.21533321609416   -8.75764118201589   -0.11919414625266
H          -2.99246699277770   -9.02811027032849    4.49760311410570
H          -4.27175690317798  -10.90573805542074    5.32956444388079
H          -4.12923135784137  -12.76631561461123    1.55894425477816
H          -4.05199047347898  -10.51084710346055    1.00739482584893
H          -4.46641934978372  -14.74749565019824    2.56997142545476
H          -7.28868925932370  -19.06817830691168    5.93172149507649
H          -8.26705294081760  -18.06238499717340    9.55435822425139
H         -10.04282494708472  -22.96994580144203    6.01061732121785
H          -9.71300645486498  -22.92648905979167   10.97786960758457
