90
 SCF done       -199.066452752910          0.000845967185
C           2.70553019997013   -1.89514895396480    3.19147149887541
O           2.16075061478781   -2.85531580301271    3.70499572031165
C           3.55587536866497   -0.90457848172332    3.87631757030275
C           3.98354313705706    0.06298111759949    2.94946910118074
C           4.80431223879820    1.09556316417260    3.37161786012732
C           5.18217569340147    1.14313499975478    4.70933561322579
C           4.74981754171374    0.17734574833320    5.62134985081123
C           3.92646474773236   -0.86045186835302    5.20410227419034
Br          5.28012827341040    0.26701347061012    7.43223758663173
Br          6.30577599866741    2.55038953445032    5.28286422664700
C           3.42509415365223   -0.25988160230545    1.63648745781034
C           3.58732447292697    0.49286536821784    0.50478398310517
C           4.33988087863008    1.68706343478697    0.45316218451075
N           4.94100244844577    2.65849894704609    0.34847380973849
C           3.02724048013791    0.21030516295534   -0.76035972316005
N           2.60028951948518    0.05706770811760   -1.81476060989619
C           2.66471244253482   -1.48911187810996    1.78289337793723
C           2.05700590935151   -2.18714963387417    0.77032042716062
C           1.31821914182289   -3.37982237832908    0.80383255343850
C           0.83554220028669   -3.97563055974288   -0.36978326072099
C           0.14814138996845   -5.14679490665725   -0.12263387735094
C           0.08124356549227   -5.44774773236998    1.26077848438545
S           0.88173132860435   -4.30818591632490    2.23833548846190
C          -0.62403191993243   -6.66573280597059    1.41420887444214
C          -0.98828932083974   -7.13965316982870    0.13588597727991
C          -0.53161430883951   -6.19410206900540   -0.86940598954997
C          -0.70667640064020   -6.27524455416923   -2.21872842502792
C          -1.39547926580557   -7.35378429131103   -2.81446954143893
N          -1.95622131527908   -8.23373244642206   -3.28883829022718
C          -0.21514142433415   -5.29056435502532   -3.10246377724010
N           0.18660580199947   -4.49344141395292   -3.82123957527564
C          -1.65196462100018   -8.35499275895483    0.19130066435536
C          -1.81409248303634   -8.81036839886628    1.49905801842254
S          -1.15797308359935   -7.68278333102772    2.67388763128946
C          -2.38054021211965  -10.07429240539301    1.81375572998590
C          -2.56749935614330  -10.76512099174244    3.01663475426321
N          -2.26901066156695  -10.19657061559728    4.27560905933287
O          -2.30741985124142   -8.97792195945186    4.36886775053725
O          -1.98831748372725  -10.92932709181419    5.20126194087118
C          -3.09165039186520  -12.07837120414418    2.86968311396086
C          -3.45097792402913  -12.99676210773769    3.98392979750501
C          -3.28933474668383  -12.40319654360750    1.54099758468321
S          -2.84463315194397  -11.08769955563072    0.48329149190225
C          -3.73590702085017  -13.61689419115364    0.94954020824588
C          -3.82437720461329  -13.85843717923690   -0.41327523571745
C          -4.22963989023946  -15.16022134231566   -0.69201619185731
C          -4.46270230176225  -15.92087923122572    0.46786768477160
S          -4.17970916589048  -15.02813103994387    1.89397080809552
C          -4.85180591603334  -17.22822467240502    0.08604450115430
C          -4.85225229860204  -17.29445347144146   -1.32332593909594
C          -4.47854261127467  -15.99657502104132   -1.85688244575835
C          -4.40791330355958  -15.64373807744897   -3.17163988110931
C          -4.70244677531605  -16.57290515408022   -4.19251608218419
N          -4.94268587997071  -17.34762398035279   -5.00273243340299
C          -4.03654580076068  -14.34558346525457   -3.58204800419626
N          -3.72838106057816  -13.28917424353505   -3.90143387767468
C          -5.22571091731254  -18.53988499181372   -1.80606525306402
C          -5.52509139414240  -19.43247190505669   -0.78502291717745
S          -5.29964681501340  -18.70330323071629    0.80317970964988
C          -5.90554313533543  -20.78655884121063   -0.87123993265433
C          -6.36857209135400  -21.48325404864752   -1.94860451130314
C          -6.27883228697060  -22.96984045771890   -1.92049160075070
O          -6.04390815931817  -23.66367558878644   -0.96049835474119
C          -6.48058712164445  -23.39185118533483   -3.32311525531066
C          -6.80000737872343  -22.26919018682875   -4.10895574662512
C          -6.88816897848924  -21.09372977133855   -3.24240121050566
C          -7.58138073691640  -19.95248584434050   -3.54823770650874
C          -7.85996293198463  -18.93135720783354   -2.61849986815809
N          -8.12423585926262  -18.08816195741063   -1.88582331175257
C          -8.18103042843234  -19.71067719521093   -4.80345157897666
N          -8.69006525580172  -19.47402690414703   -5.80335178591560
C          -6.98618581772928  -22.41098307439358   -5.47292976959623
C          -6.86267546196008  -23.67884440508038   -6.03101450150694
C          -6.56566406841836  -24.79228591692873   -5.24099783410475
C          -6.36882045682916  -24.65202219459734   -3.87295505234789
Br         -6.41795204356770  -26.50540017873970   -6.02384155173855
Br         -7.10020575629995  -23.87648204933420   -7.89474601541438
H           5.16083892399566    1.85899488369571    2.69960620776305
H           3.58568653392847   -1.61353445561499    5.89754860188346
H           2.16247537769033   -1.78656352565195   -0.23076685646538
H           1.00517277622137   -3.54676626995100   -1.34171823600345
H          -2.00289572423954   -8.90411618794486   -0.66448904287869
H          -3.32511967909006  -12.51782904191497    4.94958771422366
H          -2.81184621915607  -13.87977796526982    3.96533974832938
H          -4.48441068820500  -13.32690804238641    3.87984086123427
H          -3.59176981922007  -13.11292053952805   -1.15259587201128
H          -5.23345631740817  -18.81369275508776   -2.84496034038420
H          -5.74320134197186  -21.38743010075742    0.01868725025698
H          -7.20804155500767  -21.57087992662746   -6.11138973333915
H          -6.13318556839746  -25.50492473912469   -3.25560775084875
