95
 SCF done       -204.170322819595          0.000975858307
C           0.45567083762415   -2.13749940559607   -2.88563878491144
O          -0.68325832343190   -2.42583977696782   -2.59151922749633
C           0.94402244409964   -0.77621245083056   -3.18909301079001
C           2.31159023491069   -0.81803986591653   -3.50601491253288
C           2.97206902853025    0.35537772538111   -3.83348063718347
C           2.25453393022172    1.54611575678924   -3.83360206288631
C           0.89488658766902    1.57611703689324   -3.51188030936966
C           0.22774757579860    0.40252309408556   -3.18685300239465
Br         -0.05598397421229    3.20842963703458   -3.51491527968069
Br          3.16013906436468    3.14346561771208   -4.28273526120168
C           2.77517213146316   -2.20018597403061   -3.40576193356784
C           4.07680733140203   -2.59986888641880   -3.55482309152102
C           5.13864817870006   -1.72496904360145   -3.87544112801805
N           6.04355358798323   -1.07086929109353   -4.13941663880402
C           4.57177241824372   -3.91213063525342   -3.39118771356120
N           5.06322123396983   -4.94188935212192   -3.26060272137321
C           1.62736781890843   -3.02669405732654   -3.06141247479837
C           1.66481458192889   -4.39478862547859   -3.00912157814675
C           0.69539842245523   -5.34022589851948   -2.62471146510376
C          -0.56947470675768   -5.22479896407573   -2.05840481961669
C          -1.14072705428688   -6.46171034884148   -1.79899829201126
C          -0.31417247421743   -7.54700809649038   -2.17021610700849
S           1.16380567634108   -7.03846431731365   -2.82605315356993
C          -0.99300795364045   -8.75587778802329   -1.86110623365043
C          -2.23614704682407   -8.43328380417266   -1.30022701236068
C          -2.36869171743623   -6.98892241416053   -1.22355735218294
C          -3.41253411841495   -6.30183205453637   -0.67778245835301
C          -4.50860865965620   -6.98767982496507   -0.11124474566388
N          -5.37924678036463   -7.57087957789098    0.35504981635663
C          -3.46469153702895   -4.89280284859695   -0.60217027393516
N          -3.52870851095069   -3.75228238151534   -0.51381833516291
C          -2.98038540011671   -9.56764832107433   -0.95918727306320
C          -2.30870585520392  -10.72587733892140   -1.25709830098959
S          -0.74165458669804  -10.44415172791638   -1.95526421853081
C          -2.82322341478839  -12.10377587110552   -0.96377128438301
C          -1.91803151171088  -13.20632421844937   -1.50843918191597
N          -2.78006758126195  -12.17333061839329    0.51516185235759
N          -3.71936844590300  -12.20647274059462    1.26288712090115
C          -5.14980243416752  -12.27995861124565    0.89364006060496
C          -5.32940192382631  -12.25317897665209   -0.58079206980451
C          -4.21660800533149  -12.20585509631682   -1.46788429380758
N          -4.67788351697434  -12.22716803898061   -2.68548140404251
O          -6.01018272258455  -12.29188549636408   -2.57996190014416
N          -6.41097240146707  -12.30984875406246   -1.30382694620544
C          -5.87251784744231  -11.13050587699031    1.59479857997226
C          -5.57486672141990  -13.62492762462560    1.40473295141610
C          -5.13548690013508  -14.82562156129114    0.90908837060737
C          -5.67997573958443  -15.90641969389940    1.61288472492974
C          -6.53501199107751  -15.49932921389749    2.64616479912549
S          -6.65924846574229  -13.80046177336969    2.75312460830323
C          -7.04156989245693  -16.65917411632671    3.29534590574372
C          -6.49347637029028  -17.79344626784583    2.66386242366087
C          -5.62406396242692  -17.35604442651641    1.58375123580290
C          -4.91843321609134  -18.14056726322221    0.71889731690344
C          -4.97749893269221  -19.54822221732140    0.78863498617179
N          -5.04109509954016  -20.69014090601800    0.86827059737196
C          -4.09035710307375  -17.57392026493290   -0.27245682522997
N          -3.41165228552875  -17.08303383890612   -1.05563897659182
C          -6.93988620998997  -18.98768672993294    3.21201448048778
C          -7.83193676904048  -18.78399203576285    4.25665154811550
S          -8.08414479488114  -17.06937116073526    4.57103488858392
C          -8.47457602983329  -19.73054942491637    5.08084490906390
C          -8.65650571971507  -21.06739407831174    4.88470311387303
C          -8.97011810090529  -21.91744304626471    6.06736914571458
O          -9.29201857257204  -21.53758077701291    7.16739574215206
C          -8.74666422347113  -23.30593771215332    5.61177644842318
C          -8.44967654956792  -23.30599034278416    4.23634865350698
C          -8.53715288533398  -21.93533359712045    3.73205808321874
C          -8.73903840377716  -21.60154026363550    2.41903931984438
C          -9.06905320431338  -20.30384340183468    1.98092093629871
N          -9.36168230251570  -19.26648323530645    1.58633461809372
C          -8.73762435968172  -22.53666164047982    1.36112684335097
N          -8.75321918168690  -23.25905166495262    0.47077077304483
C          -8.15945209955834  -24.49663364869152    3.59309441385625
C          -8.18272263013981  -25.67370810518286    4.33331843122004
C          -8.49759577454912  -25.66770616751323    5.69438384103582
C          -8.78033553413898  -24.47360271565509    6.34550975680515
Br         -8.53660456490254  -27.28529005628899    6.66942497498638
Br         -7.77690914858151  -27.30162607997430    3.46513591555082
H           4.01856914858030    0.37535829829916   -4.09003281784424
H          -0.82192654886591    0.40732417783719   -2.93681123189480
H           2.59847303281158   -4.85343113424465   -3.31295944639537
H          -1.03082858123456   -4.27344169321624   -1.86260705252559
H          -3.96096087668760   -9.54412122290879   -0.51998150724200
H          -0.93657769080574  -13.13080830522569   -1.04724172734692
H          -1.83083686993252  -13.10448907949597   -2.58734232123773
H          -2.33276741785788  -14.18673853441449   -1.28376042681467
H          -5.55745536645243  -10.17016380688946    1.19208843103323
H          -5.64156738329059  -11.15236702849626    2.65681659119111
H          -6.94459437214474  -11.23311486129674    1.44573149066102
H          -4.45651416443425  -14.91849345138711    0.08053837531934
H          -6.60315286304850  -19.96196084364291    2.90805414984794
H          -8.81847813912309  -19.36728111710398    6.04497666347067
H          -7.90509629764821  -24.53531315687647    2.54603064207475
H          -9.01946445095634  -24.45783468485666    7.39748069227252
