85
 SCF done       -188.282058742384          0.000726595250
C           2.91841210769919   -5.30840608018851   -4.13375878983000
O           2.57731579987036   -6.40189964377894   -3.72118357406071
C           3.95779146244982   -5.04096164260836   -5.14495903264368
C           4.04050866281083   -3.65556762167365   -5.37389691447285
C           4.96374075275384   -3.16776645401054   -6.28353932329854
C           5.78553823989487   -4.07128227407775   -6.94904510466492
C           5.69164423677284   -5.44554145173335   -6.71723069675785
C           4.76840355056265   -5.94062297637362   -5.80522069241958
Br          6.82114032003777   -6.64759434949349   -7.63813964224578
Br          7.05015183337730   -3.40644978822967   -8.18591816420484
C           3.05368741208472   -2.97803995494570   -4.53361693637256
C           2.77723850918251   -1.63797916468460   -4.56431594859101
C           3.44428765206714   -0.71449131810366   -5.39923620519691
N           3.95166049833485    0.07989157850479   -6.05306933937804
C           1.77849275947810   -0.98923747504087   -3.80539649993152
N           0.97870273295205   -0.39512137949618   -3.23552933306852
C           2.40328995502340   -3.99668778617074   -3.72769442053531
C           1.51542798157621   -3.77111447664237   -2.70711655204073
C           0.82390793228154   -4.67741859492741   -1.88856326286246
C          -0.00978084142846   -4.24115115685201   -0.85006969606072
C          -0.62199446938644   -5.28820473080144   -0.19006242024984
C          -0.26806870170280   -6.54562416194634   -0.73568359236244
S           0.83433774224205   -6.43533920865773   -2.02606640903450
C          -0.96135942332125   -7.54912861405368   -0.01170424144462
C          -1.74497249758706   -6.93082885811676    0.98541148272926
C          -1.55246531262439   -5.49298324336609    0.91119658245123
C          -2.11713137902826   -4.53967729760097    1.70539391870295
C          -3.01323034571604   -4.86251716561666    2.74726784598487
N          -3.74104970423276   -5.11747595549839    3.59541530398760
C          -1.83914980556062   -3.16511879239209    1.54360703250016
N          -1.61265823992462   -2.04842704626036    1.41959802725849
C          -2.47525399658074   -7.84787254858243    1.73888199558953
C          -2.24660695080990   -9.14100007246681    1.31031250466326
S          -1.12575054176543   -9.24711778509229   -0.02228671567965
C          -2.83068771540635  -10.34114422150038    1.82359125685849
N          -3.68156851447552  -10.25182680415108    2.86293536555249
C          -4.22995060217712  -11.37080501124030    3.25224407399734
C          -3.97214951339108  -12.58060798729758    2.56880882552017
N          -3.05234244449042  -12.58664625132378    1.59253606522423
N          -2.47849102522030  -11.49256512436046    1.24488732325928
C          -4.62538209437665  -13.81773404469829    2.87015684446370
C          -4.38425161011286  -15.03752150271961    2.26828539414965
C          -5.20978404212905  -16.03739793646116    2.78069748035070
C          -6.08080311292052  -15.56499881710045    3.78120329261380
S          -5.88231132203844  -13.90073604909480    4.08982906759676
C          -6.88291114550700  -16.64192883444720    4.23544515961379
C          -6.51976493361375  -17.79675371964611    3.51337138650469
C          -5.44932568457319  -17.45880793984575    2.58908980173422
C          -4.79725209981556  -18.31678859948189    1.75409368625867
C          -5.13517480625222  -19.68676752172833    1.71076424264827
N          -5.42783349671245  -20.79531715825144    1.69399845920248
C          -3.75912547128227  -17.89959179877304    0.89352574678602
N          -2.92110461522779  -17.56478767764180    0.18736852672629
C          -7.24130611763732  -18.91964224873580    3.89286282395699
C          -8.14943942517994  -18.64269934179618    4.90635933682788
S          -8.11944365071905  -16.94329431571728    5.36285790047801
C          -9.07513199917110  -19.50503334227862    5.53059939894652
C          -9.10744901568641  -20.86739099622747    5.54652384119756
C         -10.39324875505392  -21.53957646696196    5.88852805281223
O         -11.37300376206180  -21.02475302843720    6.37056574633093
C         -10.21817566116059  -22.94226571947236    5.45662785386313
C          -8.89548273286222  -23.13623805673188    5.01709648435685
C          -8.14463655590939  -21.89559894264774    5.20957957270088
C          -6.78111516614528  -21.81931035265736    5.31194944966300
C          -6.08863430681518  -20.66712486798637    5.73404137285880
N          -5.48980599660489  -19.75693043619519    6.09522125819028
C          -5.91541079610904  -22.91510303458830    5.10189705152635
N          -5.17456103658489  -23.77685200933521    4.94856043559727
C          -8.50665284595842  -24.36806008260730    4.52010403361123
C          -9.44453038233422  -25.39419424194195    4.48166356277951
C         -10.75082675792492  -25.19943626252990    4.93822910255703
C         -11.14721957297237  -23.96169857591487    5.42879906196964
Br        -12.00033850295655  -26.61524605448242    4.88707520895297
Br         -8.92326296393353  -27.07370446694344    3.79203866507593
H           5.06849850336389   -2.11480444707418   -6.48838383422678
H           4.68670598687396   -6.99967005098026   -5.61588131032541
H           1.30242589376065   -2.73692596055459   -2.46398213374783
H          -0.14036436833245   -3.19850872794308   -0.61971596509505
H          -3.14130539174911   -7.61985108116788    2.55075619662298
H          -4.87875546430200  -11.32845445857398    4.11838621346880
H          -3.64235128106260  -15.15457291584582    1.49958467939376
H          -7.15629070668023  -19.88567285912110    3.43023629560681
H          -9.92443578190069  -19.02804159018070    6.01094558428945
H          -7.50932318313929  -24.54869774255862    4.15227125867293
H         -12.15501188506286  -23.79986283096536    5.77845961574359
