95
 SCF done       -205.120925759288          0.000649047535
C           2.74670775680776   -6.02151890994988    1.88253469908797
O           1.86022695199099   -5.23640470995192    2.11925842564388
C           4.16047570492833   -5.89409772338459    2.30340684314932
C           4.91594938946864   -6.95695535819956    1.77872006596644
C           6.27661305503543   -7.02230027673741    2.03254200911484
C           6.85696806345512   -6.02875615843367    2.81275819618347
C           6.09634883644887   -4.97959726652586    3.33469119763293
C           4.73403113989593   -4.90535241028732    3.07537396285388
Br          6.91010669034325   -3.64880204953922    4.40033585640692
Br          8.71264216244093   -6.11566292384458    3.15992425512889
C           4.02975962912692   -7.83579817630191    1.02071210501107
C           4.38042788682835   -9.03681351483196    0.46541959322216
C           5.68900962590701   -9.56651379956625    0.49554252036463
N           6.73404346524008  -10.03975700361035    0.48764279460682
C           3.49034635574224   -9.92742798567861   -0.17502052982795
N           2.83500481168473  -10.71957377019075   -0.68470427770753
C           2.70148579683756   -7.24910199849884    1.04364414086694
C           1.64626663917958   -7.63919096294961    0.27308998857002
C           0.31075938141929   -7.17629642137087    0.34276427548377
C          -0.46095606518255   -6.67686557464520    1.41856646159577
C          -1.74496725752922   -6.40162295934958    0.90154227161554
C          -1.68562481834366   -6.81818390546393   -0.47065831216820
N          -0.46997953144176   -7.27260176579726   -0.77084166054682
O          -2.68329115508454   -6.83253858585739   -1.32386427519420
C          -2.38574161311664   -7.30639565947289   -2.63163555263055
C          -2.52602821540598   -5.95964780808622    2.00574497919177
N          -1.79702114850240   -6.02968100040676    3.14929412064130
C          -0.57267979178335   -6.44867231725797    2.83223254450870
O           0.36997980221917   -6.66093055556292    3.70902356416932
C           0.05871606776392   -6.35124020927509    5.06047475059957
C          -3.86065782196888   -5.47792149538524    2.00888939780203
C          -4.42158460972752   -4.89434009358020    0.84519756001461
C          -5.81153209224829   -4.52695798410916    0.77102430519607
N          -6.28983691673949   -3.97912466142328   -0.34986404392415
C          -5.51313593315924   -3.86154450255242   -1.39615885061865
C          -4.12172091141204   -4.19179642097603   -1.30931000296776
N          -3.61494174891444   -4.64197340953428   -0.18949804957055
C          -3.26149393545759   -3.99286151267531   -2.41696052789727
N          -2.59528659504907   -3.87468037967968   -3.34126660427780
C          -6.05683736344496   -3.33285262800844   -2.59387735851110
N          -6.48327386265224   -2.93555171295870   -3.57967953914166
C          -6.68369379822280   -4.69827801201713    1.87702518664376
C          -6.10862920562657   -5.21000435792618    3.05813404910768
C          -4.70974499011178   -5.58173866779021    3.13148029809419
N          -4.40365057768561   -6.10596171095962    4.31617465321386
S          -5.71561486938685   -6.12483215964604    5.23404230239611
N          -6.75370540215627   -5.50072404132205    4.18555579961553
C          -8.06262308339715   -4.39131693672318    1.75022047291661
C          -8.99812881811481   -3.98868010501805    2.73866024503106
C         -10.21686448282075   -3.77477728258435    2.05610986698445
C          -9.93318558025917   -4.04459821017331    0.67705619035521
N          -8.66350142185678   -4.41154065209226    0.52844628678226
O         -10.78717558882019   -3.94212179733234   -0.30632016378418
C         -10.28102109625115   -4.19499809071637   -1.61032322339045
C         -11.14081007920744   -3.28532408026368    3.00397830819844
N         -10.53553554554506   -3.21044416489893    4.22586206868435
C          -9.26599848683932   -3.60104364697761    4.09018690149131
O          -8.40216501127943   -3.59297246811536    5.07328980660624
C          -8.87638836298193   -3.16214285776493    6.33885152477780
C         -12.49449153911194   -2.96246841402787    2.76328056386749
C         -13.39938915039356   -2.44964412779392    3.64348641187791
C         -14.85884726058124   -2.57537642259340    3.37532847535104
O         -15.38934937320874   -2.85036948312068    2.32662876101097
C         -15.50317926671496   -2.35042362023225    4.68911555382686
C         -14.52577448391904   -2.00899951094731    5.64389054946745
C         -13.22637927862621   -1.92469770330745    4.98043237841556
C         -12.12258790643773   -1.27658617819672    5.45829842438734
C         -11.03187218252529   -0.87124546480257    4.65222911352622
N         -10.20001926858998   -0.34906934885684    4.05668362000217
C         -11.99032643483194   -0.82711363349338    6.78736939945439
N         -11.81143334835628   -0.48929976800428    7.86985218538534
C         -14.89808217975754   -1.77298184821088    6.95633052709325
C         -16.24228383636789   -1.87856173236204    7.29540086423735
C         -17.20753066476175   -2.20666621727894    6.34018630630997
C         -16.83856447164555   -2.44627177523681    5.02267455094012
Br        -19.02850767683537   -2.33259037462868    6.82885904379063
Br        -16.75288555479374   -1.56683183591775    9.08782752824640
H           6.89677465313156   -7.81236575278532    1.64121128489507
H           4.13681824291791   -4.09658964345294    3.46702389654527
H           1.81249656767210   -8.35012860486537   -0.52759755057953
H          -3.34307855336636   -7.48017706571891   -3.11877027989194
H          -1.80032722012744   -8.22475260601958   -2.57726912672469
H          -1.81691171232198   -6.55210176763908   -3.17918502613168
H           0.10997994470897   -5.27112545717164    5.20935467844725
H           0.80744994464903   -6.85203771921436    5.67100054824696
H          -0.94784144190088   -6.69327259127631    5.30481251348877
H         -11.10714087893277   -4.01871915467880   -2.29501944738031
H          -9.93143115194217   -5.22610936501782   -1.68517133544144
H          -9.44573197538164   -3.52813452745554   -1.83082398657612
H          -9.77190171203564   -3.71679617315800    6.62425435358089
H          -9.11281641915536   -2.09607797266321    6.31176702055066
H          -8.07003579817034   -3.34845116840592    7.04472383548573
H         -12.87762678491496   -3.24266788703288    1.78818943891360
H         -14.17837041718728   -1.51788179496213    7.71777755120305
H         -17.57625283618825   -2.70038748521124    4.27732550008153
