95
 SCF done       -205.256168758630          0.000883755161
C          -0.11365550749938   -1.14619187217686    2.47938133492174
O          -0.20103390783383   -1.88528840706636    3.42774179031317
C          -0.81359566375933    0.13592166650323    2.27367824861219
C          -0.17381877705656    0.86449344391245    1.25386922477591
C          -0.65589338344670    2.11450731137202    0.89831546152802
C          -1.76940341858943    2.61188062452180    1.56446903092570
C          -2.39598688231017    1.88063822620889    2.57779072919775
C          -1.91169232347428    0.63196380262370    2.94399255109427
Br         -3.90596706943476    2.58465064922042    3.46268343560927
Br         -2.43232436983597    4.31220473336082    1.07928660033667
C           0.94609210839865    0.08471963178684    0.73349844314769
C           1.86522532412896    0.51371056056934   -0.18615553984103
C           1.86564376987928    1.80243123059701   -0.76347537750161
N           1.91992138479729    2.83604614637664   -1.25767544733522
C           2.95360258441604   -0.25676578154683   -0.64778403873958
N           3.85473601974207   -0.83969246604720   -1.05523385856753
C           0.88580954347119   -1.22139257666794    1.36496770507391
C           1.60671608266882   -2.33144857560219    1.05888302627537
C           1.24272800942859   -3.63577892950941    1.49446057286818
C          -0.03734153309614   -4.13241412067956    1.71510040606246
C          -1.44136025981436   -3.78816807881255    1.64242273211491
O          -2.01123018419608   -2.74080347567878    1.42543811186661
N          -2.10936053375970   -5.00885862748729    1.88772458528175
C          -3.54033452666145   -5.04980356450195    2.02170531966710
C          -1.22808794111947   -6.02482744750465    2.10889578594144
C           0.06296286763292   -5.51240531585577    2.00119934431400
C           1.46294974811839   -5.88815786908651    1.93472561402480
O           2.04098139638581   -6.94243843662648    2.07690373228776
N           2.11910528843936   -4.68055270219136    1.60764480143304
C           3.54704281841337   -4.59717946654141    1.46583647170779
C          -1.51854012688023   -7.39936078986909    2.41133952350535
C          -2.47096357899444   -8.19936098345524    1.74629961126240
C          -2.63546344000428   -9.60187907809893    2.05926305714922
N          -3.61949029805481  -10.30023588846894    1.47014956603509
C          -4.35977337785182   -9.72569645254335    0.55622582122299
C          -4.11148994039713   -8.37231234086516    0.15641759525312
N          -3.19996344902214   -7.65119325504633    0.76051726967506
C          -4.86043351708978   -7.79014296026938   -0.89784130463949
N          -5.48298708800074   -7.33950973650234   -1.74653626776826
C          -5.39788032225658  -10.46977007281307   -0.06099019223861
N          -6.23316078501551  -11.04741930554139   -0.58929927473691
C          -1.82020829959521  -10.24565744137297    3.01287897961323
C          -0.83282029258158   -9.45790714540241    3.62896937886164
C          -0.70840469512919   -8.04617342835761    3.36039485978065
N           0.22915338450002   -7.48195749784386    4.12497077455141
S           0.92713402779549   -8.61416730452462    5.00376730877344
N           0.08230473430680   -9.87393898239326    4.50777119422998
C          -2.02820531794065  -11.57520646803707    3.51890015959328
C          -1.99574351895188  -11.89160874337611    4.87396439714625
C          -1.88998907876564  -11.30509509660795    6.19589682453150
O          -1.69092324732103  -10.17348831229910    6.57942918484875
N          -2.09092839557178  -12.39580983499950    7.06065757541751
C          -2.09617580025745  -12.23040175383799    8.48869795055574
C          -2.36600194902720  -13.56006598754708    6.38257552290296
C          -2.30152201670536  -13.26454465838445    5.01761620966667
C          -2.45956781533173  -13.81368093421536    3.68909126845949
O          -2.67661984018482  -14.94545937988676    3.30129721529866
N          -2.31370475713517  -12.71196736533520    2.82564418461648
C          -2.33025663978976  -12.89101004621054    1.39860262264365
C          -2.53525026650888  -14.78406977951125    7.06702642803597
C          -3.02971061661878  -15.98407147913688    6.64762412604945
C          -2.67621414125829  -17.19600625257329    7.45549040512507
O          -2.18082564613812  -17.20288650840484    8.55596572986958
C          -3.02073605143673  -18.34344427768023    6.59561797081062
C          -3.64707250587857  -17.87634405698915    5.42472333138742
C          -3.78796437263127  -16.42286089407723    5.50410551660023
C          -4.63682357480895  -15.67045464156368    4.73496834159312
C          -4.94307786326703  -14.32395778717767    5.01170862192169
N          -5.22903011477318  -13.23239834641098    5.21954213679907
C          -5.40633114760321  -16.18594841832243    3.66902212962924
N          -6.05287824223810  -16.55349590142191    2.79663335995601
C          -4.02396251613546  -18.77240899461010    4.44048745540661
C          -3.78074729917892  -20.12638742364145    4.64684762860690
C          -3.17700805147706  -20.58448928047858    5.82061970234040
C          -2.78865975442821  -19.68720677791358    6.80733851052799
Br         -2.87128747496579  -22.43042957567836    6.08009688766957
Br         -4.28367236187373  -21.35193230760115    3.30179166188285
H          -0.19940538609682    2.70745375571483    0.12221821584536
H          -2.38573800238643    0.05651572072185    3.72335203153785
H           2.46136664558088   -2.26548295568869    0.39859662192556
H          -3.88409523466154   -4.01913270235222    2.10952387496857
H          -3.82321722389819   -5.61073691676399    2.91269872724964
H          -4.00121898552352   -5.50467054389965    1.14373770217380
H           3.94625664225605   -5.59206756046121    1.66170888329466
H           3.96826878425798   -3.88892402367579    2.18098943388526
H           3.82317197633466   -4.29291204083465    0.45408530219352
H          -1.95515591906961  -11.16715244775649    8.68303869036435
H          -1.28000901027580  -12.78796820809966    8.95300893315271
H          -3.04701964085815  -12.55289037116943    8.91537092190088
H          -2.19982679574736  -13.95575112069438    1.20398930853933
H          -1.52009607992617  -12.32770742217991    0.93621816074748
H          -3.28399903854654  -12.56939224539686    0.97889306344777
H          -2.12692101568478  -14.81267249475192    8.07401862792414
H          -4.48265916776283  -18.44941258515383    3.52007818845155
H          -2.31549577080240  -20.03085220408206    7.71408155297715
