93
 SCF done       -205.718718822129          0.000396943505
C           0.63290948624226    0.03850131613970    1.49507928502803
O           0.57348318639838   -0.63746075183487    2.49867002720452
C           1.09165612249908    1.44236643327795    1.43742159702997
C           1.01276224322460    1.91631694704582    0.11814353729139
C           1.39264511826141    3.21938135472234   -0.16108070672245
C           1.84454027245909    4.01979817693952    0.88206423445744
C           1.92065728096077    3.53611808119686    2.19013428262972
C           1.53944740885147    2.23181094191108    2.47575737251290
Br          2.54125740876598    4.64785687131639    3.58588896068184
Br          2.36197460298472    5.79739054222808    0.49892148528261
C           0.50929241768400    0.84299224547736   -0.73770016876124
C           0.34154735980408    0.94600987298119   -2.09424646708787
C           0.61598939506938    2.11601838107595   -2.83646724105852
N           0.81551134306149    3.03068065755886   -3.50004823149447
C          -0.11002267747043   -0.06722410291204   -2.96727701701227
N          -0.46110368312740   -0.82550400352230   -3.75547225682641
C           0.26041615153982   -0.31481711813085    0.10702935459154
C          -0.26924314710717   -1.49247237309123   -0.35646502077329
C          -0.54286733337128   -2.71410452390506    0.28140272438879
C          -0.32600667482414   -3.18578965499547    1.57397850048071
C          -0.75357110475221   -4.49284268429256    1.73339226793081
C          -1.31333136368246   -5.04799202288638    0.55340114666375
S          -1.29805325941531   -3.95194235932822   -0.74303851691015
C          -1.72366972269318   -6.37013009360375    0.82273031449361
C          -1.42621593320641   -6.66027725056365    2.17287550679759
C          -0.80382359024786   -5.49600361336299    2.78428825308001
C          -0.35788652700889   -5.38927341821417    4.06787668695280
C          -0.47312482948710   -6.45451176930117    4.98802200343873
N          -0.56205763571439   -7.31287653768771    5.74276781652776
C           0.25963592110714   -4.22692007543896    4.58067998130644
N           0.77272476793705   -3.30510744518634    5.02777757805833
C          -1.79278540933657   -7.94433973266876    2.54227192211217
C          -2.36961342600674   -8.64859569419370    1.49004393021739
S          -2.45375832283040   -7.69085547308661    0.01750785316141
C          -2.86339704367694   -9.98078806518155    1.49115248945855
C          -2.85541971803945  -10.83996808764096    2.62571489712202
C          -3.36909964122604  -12.18011535249421    2.57343720682617
N          -3.32921267663533  -12.94518036118317    3.68318577407810
C          -2.83222491300680  -12.45768377494629    4.78384283563346
C          -2.33205264872401  -11.14128704000590    4.83633461605870
N          -2.34878568389000  -10.37308590994597    3.78493443341726
C          -3.92057817946593  -12.73399615772976    1.38392325158169
C          -3.92142891375992  -11.87855673277910    0.26416553357970
C          -3.40823675934083  -10.53723355415478    0.31684905094164
N          -3.51890317042170   -9.92182923717145   -0.86297263312783
S          -4.19357264376588  -10.91881339941516   -1.92254024054230
N          -4.38268705871317  -12.18115934563196   -0.95180450074991
C          -4.44917928686278  -14.04840534421142    1.28121519308769
C          -4.55002547727093  -15.01574934811373    2.27588196871778
C          -5.12381643936009  -16.18692371851732    1.80838268502624
C          -5.47059396432819  -16.12466005565118    0.43969169109567
S          -5.08528511183032  -14.61349758414702   -0.25892177326350
C          -6.05009566451098  -17.35957971843053    0.07191256092055
C          -6.06731049458242  -18.20450951491403    1.20625726946226
C          -5.49648269214433  -17.48956913137326    2.33326873366501
C          -5.37845047728378  -17.94179083404925    3.61478990049175
C          -5.82424170855650  -19.23086703984676    3.97618361773383
N          -6.19284293787094  -20.28303335768897    4.24467297715185
C          -4.81434552862315  -17.15828422033336    4.64367607414483
N          -4.34937102212298  -16.52758046488104    5.48037522730843
C          -6.64463118699165  -19.43791470131534    0.95524809707167
C          -7.08161564914227  -19.55817887400906   -0.35925750946171
S          -6.72612251541323  -18.10950281266861   -1.29780968586585
C          -7.68989081733504  -20.66177971512096   -0.98722957802413
C          -8.29394347046912  -21.74387275793081   -0.41385279202462
C          -8.46197885359597  -22.97922217260128   -1.22676726503198
O          -8.31510838677170  -23.08801300713962   -2.42076424048706
C          -8.78861734383829  -24.04000620909536   -0.24905180331294
C          -8.93586170268843  -23.46972630821560    1.02873198654873
C          -8.78145697048321  -22.01882842344230    0.92053911442887
C          -9.27319367105842  -21.11656684560832    1.82710115330119
C          -9.33629572478532  -19.72751651847663    1.60059554017945
N          -9.43238012932462  -18.59386474527822    1.44792985225002
C          -9.86775175567765  -21.48087658727363    3.05452163090535
N         -10.36504618764369  -21.72689265190287    4.05821553414307
C          -9.19924845323479  -24.27842547565004    2.12034367045822
C          -9.32579314239845  -25.64820225386954    1.91580887407282
C          -9.19846674713197  -26.20487534867013    0.64100081300683
C          -8.92372932829675  -25.39712255134953   -0.45547186577888
Br         -9.38929447669939  -28.06789955642945    0.39049091408813
Br         -9.67197287164360  -26.75934465872265    3.40408950894701
H           1.34875040898888    3.63275567681481   -1.15523586171652
H           1.59096885557233    1.84126621427331    3.48033128552334
H          -0.53329304540801   -1.50484597311531   -1.40719551517476
H           0.11974698446583   -2.57722190506751    2.34071224457514
H          -1.66711919376843   -8.38675456394653    3.51261856665515
H          -2.82518979707483  -13.11363406302421    5.64298928269372
H          -1.91567540933307  -10.71597487299879    5.73863472602486
H          -4.20940139477590  -14.83222787510440    3.27775775611531
H          -6.70926709751829  -20.23902823656739    1.66858928645913
H          -7.61370824057434  -20.70471148102944   -2.06943732679537
H          -9.29466783271612  -23.88112242081143    3.11814718373872
H          -8.81805084445877  -25.81886210018360   -1.44290341386653
