95
 SCF done       -214.751548669327          0.000793929332
C          -2.80162893069740   -0.60371254460454    2.16155061222298
O          -3.28043185518783   -1.69114733819368    2.42686673919810
C          -3.16524131331025    0.68456553865166    2.77849029470374
C          -2.40065956272421    1.71193342131100    2.19695636802896
C          -2.56892464740723    3.01612162640324    2.63136956625413
C          -3.49702076128782    3.27025811547867    3.63575399573913
C          -4.25340895648110    2.24213404024208    4.20366444860043
C          -4.08857490623230    0.93200880497798    3.77277417918202
Br         -5.50767424218287    2.61798213709552    5.56527842362762
Br         -3.72213638932915    5.04980402714876    4.23025144685911
C          -1.52299087033519    1.13171676664845    1.18043191902732
C          -0.67074395824584    1.84167802011114    0.37789257295490
C          -0.51520201242223    3.24426876981494    0.43809747040797
N          -0.34487787507212    4.37872408531435    0.44000208613134
C           0.16032146302760    1.29926693461280   -0.62653102689944
N           0.85824635698821    0.93865968043682   -1.46355744622106
C          -1.75290970050095   -0.30238630577608    1.18127414940558
C          -1.07992717234198   -1.22880117506604    0.42481067651707
C          -1.21945584869767   -2.62316914575369    0.35921304502596
C          -0.39135028658764   -3.40393401732361   -0.46168661566014
C          -0.68549500203741   -4.74886688129583   -0.38166646512489
C          -1.76230687712459   -5.01117001875295    0.50550337414465
S          -2.38907354159760   -3.60765663865529    1.23825470285839
C          -1.98768770521291   -6.40477410577706    0.52754229115860
C          -1.05893872710436   -7.02714377157092   -0.33837350539376
C          -0.21409351858751   -6.00792777494953   -0.93781790479610
C           0.80255224497552   -6.19801979762958   -1.82603928073508
C           1.16177213736363   -7.48213061230222   -2.28928749963403
N           1.45585692137556   -8.52368008002778   -2.66739856564366
C           1.56369730187360   -5.12529936202552   -2.33837707460574
N           2.18543989601373   -4.25706887080952   -2.75453207705559
C          -1.19686661222849   -8.40544993878848   -0.37433392541753
C          -2.22600705103514   -8.84561972557897    0.45356657841872
S          -3.03447866921240   -7.52585883703503    1.28384845005085
C          -2.62879126554741  -10.18877548901187    0.66157749142014
C          -3.71172616918820  -10.50206682794824    1.51590686194345
C          -4.13725573333554  -11.85517077748566    1.75472014072844
N          -5.17461748155148  -12.08730542804750    2.56580052163245
C          -5.79615855013938  -11.08656883469157    3.14095688094713
C          -5.36754624207302   -9.73953364443305    2.90910934988047
N          -4.35406469105243   -9.49376756775869    2.11473880601863
C          -6.03713871171030   -8.65619390348834    3.53136513230691
N          -6.59663828961717   -7.80029204122825    4.04634085007838
C          -6.90064666131308  -11.35679830942441    3.98715484975285
N          -7.79922090844440  -11.55170211988750    4.66935796113764
C          -3.49868844398695  -12.96766488838812    1.15977478060636
C          -2.41904582664099  -12.65913652028386    0.29894614685971
C          -1.99472461367607  -11.29839091020133    0.05350141116995
N          -0.96107408049500  -11.25723928308363   -0.78852868458881
S          -0.56285610934398  -12.74491172136237   -1.22594213247058
N          -1.67090814177060  -13.53108779797918   -0.37845883291958
C          -3.93414672821211  -14.28889450978536    1.43114312180626
C          -3.39482965605844  -15.46521926969035    0.91696799485381
C          -4.05504367065036  -16.58697160893012    1.39145819288446
C          -5.10853342732171  -16.26755706155706    2.27764229194587
S          -5.27996711365146  -14.58246121811064    2.51909396328411
C          -5.70558103378623  -17.47277816512731    2.70303860544656
C          -5.04309281967873  -18.55859781622037    2.08528973968853
C          -3.98216197766943  -18.03246890028466    1.24269563714009
C          -3.10609418252004  -18.73820073817619    0.47273806836278
C          -3.14053696406980  -20.14739692271406    0.39676644213009
N          -3.17257040566773  -21.29099577952512    0.32748410800736
C          -2.11521879393358  -18.10413408394117   -0.30772434647699
N          -1.30538976084903  -17.59788856874373   -0.94179571737836
C          -5.58235825414401  -19.78758643790040    2.43759094305556
C          -6.62420379269879  -19.66495112667713    3.34950864764736
S          -6.96744611122179  -17.97643485094739    3.72640663452407
C          -7.40489771054501  -20.73125590282894    3.84573608917214
C          -8.25533817172320  -20.76785595579263    4.90912178334528
C          -9.32003266923193  -21.80834814600782    4.95457421865755
O          -9.40188158639593  -22.79613621256616    4.26621178307957
C         -10.27611098129166  -21.32622876782575    5.97637324683786
C          -9.76133887937043  -20.17221139707002    6.59660775572337
C          -8.43057119128027  -19.90251539876718    6.05599116823661
C          -7.44723356988524  -19.19778031234804    6.69773140892777
C          -6.09719522319405  -19.21218584409739    6.28898910687287
N          -4.98586910826528  -19.23802807916290    6.00379979718207
C          -7.65493716274881  -18.47131863047804    7.88885550158598
N          -7.78351346731897  -17.86103543182645    8.85150155612867
C         -10.50045514903128  -19.52058645484587    7.56811544788270
C         -11.74496688187747  -20.03700705602465    7.91230112095841
C         -12.24300983363054  -21.19226217816158    7.30390917547015
C         -11.50546363546788  -21.84604673070112    6.32460548785974
Br        -13.93065047128114  -21.88047542744717    7.80107134986873
Br        -12.76564012906479  -19.14226197204578    9.22642531520759
H          -2.00469555527138    3.83721175758544    2.22030385539342
H          -4.66501859154850    0.12786847651561    4.20316869736694
H          -0.30171130323210   -0.85305940752444   -0.22853793822742
H           0.38103617746097   -2.97062985377053   -1.07254623590391
H          -0.60268884786325   -9.08720093484139   -0.95455041842176
H          -2.56337950499745  -15.45866168470136    0.23633196838828
H          -5.23504398707599  -20.74220469558811    2.08527777117973
H          -7.38922919624491  -21.63423968727441    3.24169726156541
H         -10.14598879184369  -18.62454310359314    8.05215790134606
H         -11.88291729439368  -22.73753287216332    5.84826795982432
