89
 SCF done       -196.320061355541          0.000470318715
C           3.56016647587609   -2.43686368767190   -3.16961644095328
O           3.19940916976950   -3.37483792664301   -3.84545802119012
C           4.45243350438110   -1.34945805764560   -3.62158197090694
C           4.63829234499644   -0.42158311280365   -2.58406734936738
C           5.44666643521067    0.68400774228696   -2.79600398166877
C           6.05198906412061    0.83901518674190   -4.03787396062571
C           5.85896777988533   -0.09097608642361   -5.06275288844122
C           5.04924331468184   -1.19984137903196   -4.85600553131512
Br          6.69462786128113    0.14512590025845   -6.74030775439515
Br          7.15485247059277    2.34788903229938   -4.32166596603429
C           3.88092170921720   -0.86418806538597   -1.41475671864311
C           3.85256453280934   -0.20685003750493   -0.21293472297342
C           4.54358262958774    0.99842933058978    0.04408154861500
N           5.07566578348809    1.97630922299820    0.32153085741541
C           3.15680024677717   -0.60431127171814    0.94960152490102
N           2.63270685535723   -0.84734155413790    1.94236677641496
C           3.21065151040407   -2.10744196927637   -1.76846779089537
C           2.38743544577252   -2.79483610862127   -0.91586214302217
C           1.70594207322592   -4.01863001784334   -1.04956073631842
C           1.65894363124888   -4.98080656090281   -2.05387861741651
C           0.86510309290964   -6.06272853396697   -1.70623777787958
C           0.28420424977340   -5.93694521813161   -0.42158195960403
S           0.72362415289376   -4.49040335000088    0.34965449354363
C          -0.49228261100009   -7.08984181913371   -0.16637833960241
C          -0.40393298866318   -7.95151197147603   -1.27661293469324
C           0.44484930735504   -7.33076432654819   -2.28370620333486
C           0.76888999531766   -7.83549383801008   -3.50659285877163
C           0.27955685829665   -9.08134557680561   -3.95956168247018
N          -0.11487699453515  -10.08711032595320   -4.34164962683931
C           1.61206526846431   -7.16477513407243   -4.42108083273370
N           2.29612589043341   -6.65244060777942   -5.18413439018422
C          -1.12298291008418   -9.13174148264270   -1.10472286733787
C          -1.76438583385415   -9.17276806993182    0.12213111237455
S          -1.47155316879303   -7.72774410562009    1.07713362900240
C          -2.57840943323052  -10.22797864443008    0.63324910359161
C          -3.25450718452888  -10.15893238712063    1.84217726376451
C          -4.04709118635608  -11.19425654290167    2.34014120782316
C          -4.22882193066270  -12.40152896348977    1.68220861065003
C          -3.54919626040040  -12.52180814270240    0.43748439837989
C          -2.74163308421246  -11.44669674961187   -0.08370329530714
N          -2.25702650199411  -11.85462906816067   -1.24021670276054
O          -2.72175052583355  -13.08148105527273   -1.43020582453560
N          -3.49730630394702  -13.50365080556751   -0.44123170755566
C          -5.03287660332154  -13.46516960535686    2.19134841194171
C          -5.18999203760777  -14.72878622475659    1.64592032264340
C          -6.04483069864951  -15.52091501173772    2.40785934468680
C          -6.55158741548527  -14.85087963329403    3.53804118040247
S          -5.96274308142919  -13.25523992958623    3.66692284924992
C          -7.40446539816515  -15.73122066974826    4.24185993893008
C          -7.44021941882881  -16.96593361715822    3.55931633016255
C          -6.58392403945068  -16.87293695453684    2.38699018908801
C          -6.33633696471158  -17.84799035965308    1.46811995850596
C          -6.93001966587816  -19.12627572351488    1.55591872045360
N          -7.41808358663630  -20.16107635443603    1.62277839747391
C          -5.47553765054631  -17.65135195447374    0.36570946224961
N          -4.77918814382184  -17.50592314475352   -0.53250868164459
C          -8.26746307917746  -17.89490964693114    4.17575269783051
C          -8.84223676396217  -17.40215866879523    5.34120858167054
S          -8.37695825955038  -15.72666132479211    5.63679146425648
C          -9.77379465943433  -18.09594069567406    6.14171280937421
C         -10.24583891573310  -17.81492361286173    7.38865726883410
C         -11.55139446092415  -18.39027822628801    7.81369670911239
O         -12.16207071850086  -19.28420737786362    7.28040598266490
C         -11.95780199432440  -17.58125617003268    8.98523624452447
C         -10.92318460074107  -16.68891272582580    9.32335824527849
C          -9.78461827227563  -16.93505982237392    8.44039403325745
C          -8.48106911191632  -16.63368425366374    8.73384961782791
C          -7.38875182361635  -17.16538650273099    8.01688724998781
N          -6.48188728099714  -17.61864034229907    7.47899040365220
C          -8.08778888991064  -15.84383009420802    9.83365940998137
N          -7.72691172592921  -15.18777002151682   10.70282059677857
C         -11.09083411884248  -15.80069961846108   10.37102171197598
C         -12.29165471814005  -15.82110286499707   11.07198225963285
C         -13.30796172527365  -16.72118761614275   10.74201170221656
C         -13.14435783391830  -17.61144616221927    9.68776945816419
Br        -14.92352201147449  -16.73637478537491   11.72182224534278
Br        -12.53401624379818  -14.59651154204119   12.49057286543701
H           5.62144922003248    1.42541071137318   -2.03380927947877
H           4.88907257080280   -1.92849615446620   -5.63561309901755
H           2.22334024780629   -2.33338134244017    0.05062476920443
H           2.18773050599971   -4.86800027324384   -2.98367803071288
H          -1.19356513930994   -9.93720994451790   -1.81288704866308
H          -3.16739825388295   -9.25749276579721    2.43128276514027
H          -4.53867504976860  -11.04581745225923    3.29066531739793
H          -4.69277699512483  -15.02592020305083    0.74043538713751
H          -8.44163252541911  -18.89732012813921    3.82830564126066
H         -10.25497484756623  -18.93936484707029    5.65411541986367
H         -10.32710563821226  -15.09180201483907   10.64849685944241
H         -13.92413691566749  -18.30906818812668    9.42433438919877
