87
 SCF done       -196.100753618013          0.000368664918
C           5.04059554451989   -3.42166647397155    1.17479754727318
O           4.96122410974591   -4.46418604874992    0.56507202005688
C           6.26866031078046   -2.62107476490295    1.36910726963051
C           5.98677526781070   -1.49399736532196    2.15971778141166
C           7.00434026239878   -0.61070159300466    2.48110185916851
C           8.28451333938964   -0.86871281824065    2.00382900301424
C           8.55318978826059   -1.98946238458277    1.21404811228930
C           7.53679429764873   -2.87945972332125    0.89215434591827
Br         10.30235933226624   -2.31253460113611    0.57810821931244
Br          9.67571868186591    0.33050285075198    2.44905907868100
C           4.56641090961857   -1.50244405572928    2.49820762026214
C           3.89475813218986   -0.49514855403225    3.13799422708987
C           4.51159537383013    0.67830598157655    3.62331760998058
N           4.96206767383401    1.64641481346346    4.04266017201705
C           2.50165704514068   -0.46807522529115    3.36591224379092
N           1.37566343798650   -0.36938863242826    3.56619570802377
C           3.99118533057887   -2.71886756273190    1.95244246494110
C           2.76030579059924   -3.21492783779375    2.28726594459728
C           2.07894108909659   -4.32263487447778    1.74513801140324
C           2.21692124167745   -4.97790671254673    0.52705542496197
C           1.31428344665703   -6.02242915931646    0.39242656377736
C           0.47474695922612   -6.18179442341204    1.51819120398065
S           0.76988114004584   -5.01256947636181    2.71404531794002
C          -0.35628992997388   -7.30962014671592    1.30739559449621
C          -0.04973852770657   -7.85587466002751    0.04320384415592
C           0.99096404542400   -7.05510304924868   -0.57987712638351
C           1.53554497572580   -7.22808929799652   -1.81744041140621
C           1.13613478086188   -8.28074789680462   -2.66964469776555
N           0.81726553231048   -9.13469277309732   -3.36473097862796
C           2.51383398961823   -6.35831078256311   -2.34770150780057
N           3.29075560693757   -5.65073888136124   -2.80476613801767
C          -0.79751550259368   -8.99461218340730   -0.24501718462053
C          -1.65507998653528   -9.30877767826698    0.79290740115948
S          -1.56046598225266   -8.19342652532880    2.13502563351161
C          -2.53655486737541  -10.42529198501883    0.89615659429310
N          -3.23767317026671  -10.54660181480254    2.01391368008922
N          -4.02500781326173  -11.54648050919471    2.24965122605145
C          -4.20261954633016  -12.54455217554095    1.39625124655630
C          -3.53379116464787  -12.51908896074218    0.13920798412523
C          -2.66482626233495  -11.41251207931048   -0.12217367507996
N          -2.09422982585671  -11.49809609482968   -1.32046666763527
S          -2.60529666518140  -12.83847875306846   -2.04433943039040
N          -3.57003149516698  -13.37616766991321   -0.87718200933168
C          -5.04673315003216  -13.61747856594583    1.80860735729047
C          -5.33310463493524  -14.78591332344562    1.12772911803012
C          -6.16253065417377  -15.61706396313467    1.87627982205937
C          -6.50341792343049  -15.06269615255634    3.12844225031696
S          -5.80297318431011  -13.52779602141928    3.38228639669691
C          -7.32501870979961  -15.99032419810191    3.81866559579248
C          -7.49878669598257  -17.12699946652771    3.00168398663003
C          -6.76648063654308  -16.93240390872741    1.76118892984436
C          -6.64002106719927  -17.82788207367960    0.74016011317937
C          -7.25506981442663  -19.09642566308968    0.80245769080237
N          -7.76175552035668  -20.12236656163607    0.87692062830338
C          -5.88844649068704  -17.54878822495682   -0.42105654721434
N          -5.28340113358136  -17.32155851001083   -1.36763065395697
C          -8.25509186987848  -18.11905786530092    3.60752561804967
C          -8.66218350142333  -17.76079826541003    4.88630649768424
S          -8.11931654778680  -16.14197042864500    5.31401948928916
C          -9.44717812535687  -18.49523119131014    5.79972374312879
C          -9.70095045591439  -19.83456661586414    5.82110744341952
C         -10.87523614454882  -20.32464461931245    6.59604583367796
O         -11.53000313775408  -19.69723725685242    7.39312742127551
C         -11.08736927548713  -21.71278202019237    6.13326381829275
C         -10.05252468426785  -22.07667024188508    5.25192001251699
C          -9.09573929927565  -20.97377226585219    5.16226969741382
C          -7.79015600394402  -21.10952387862976    4.77137802211794
C          -6.81252231342802  -20.10536612699986    4.91764777700443
N          -5.97543692759283  -19.32964827450522    5.04048945880840
C          -7.24172874043840  -22.30873502846051    4.26616151871438
N          -6.74814354552157  -23.25990128322393    3.85786089022621
C         -10.06197298778947  -23.32456348622221    4.65332656837673
C         -11.10075062908073  -24.19803758791207    4.95622900770496
C         -12.11409334772124  -23.83697754495852    5.84797528785019
C         -12.11361558905896  -22.58133356708940    6.44231468751399
Br        -13.50485329438648  -25.04948859480264    6.25329272381463
Br        -11.12408385540551  -25.89856558308454    4.13401924285296
H           6.83688332574098    0.26149530355323    3.09195660401760
H           7.72950798020117   -3.75008309070335    0.28460763688796
H           2.23816908579938   -2.72949024965781    3.10373398426032
H           2.94077864494380   -4.69315970579133   -0.21279872881449
H          -0.73722629232957   -9.58450281200546   -1.14170569103468
H          -4.94236927333302  -14.99446900840847    0.14810212466375
H          -8.54106070485956  -19.04310206947483    3.13925289526467
H          -9.97555771230074  -17.92002133191577    6.55398951470615
H          -9.30009085020560  -23.63070957789071    3.95451637900403
H         -12.89469102660659  -22.29136652698321    7.12781472726430
