92
 SCF done       -197.630624438002          0.000978864752
C           3.10910236796295   -1.71274097097143   -2.07177731639721
O           2.44380403944321   -2.43067852964301   -2.78493238295744
C           3.79706363856421   -0.47453161121038   -2.49650895774432
C           4.43797503123367    0.11801572719685   -1.39591573895887
C           5.13658936637000    1.30194234630457   -1.56761220795079
C           5.18381435937442    1.86864192286035   -2.83637198732220
C           4.54705747609052    1.26817091182855   -3.92484234804658
C           3.84242165584246    0.08328498479870   -3.75696254748496
Br          4.63398885864095    2.06086176567622   -5.63754391628173
Br          6.13415804392672    3.48575241835964   -3.07151835604425
C           4.21247351037342   -0.71574560959488   -0.21747778147447
C           4.78613423829949   -0.51422343149698    1.01049572366321
C           5.62832301430741    0.57661734700797    1.31733627494760
N           6.31861230244948    1.43886968521424    1.62750411319370
C           4.65692455275250   -1.36475838858264    2.12964575689831
N           4.61747970320257   -2.01001755868666    3.07873389035073
C           3.35581568509147   -1.81914592498447   -0.61551884020395
C           2.77941182143629   -2.69871378096619    0.26387606951625
C           2.03639805950428   -3.86864781197059    0.02751129297290
C           1.84602956847180   -4.64268281553895   -1.11311043230430
C           1.07874047088873   -5.76839850767400   -0.85990941773258
C           0.65864067324683   -5.86556188204201    0.48830052442551
S           1.23817920356618   -4.58403504481949    1.43903276934078
C          -0.12902672693715   -7.03174141264301    0.62915392936785
C          -0.20216753478678   -7.67898752453375   -0.61786038670436
C           0.55982327734701   -6.91355509488372   -1.59176333732686
C           0.76027164404544   -7.22452647911956   -2.90348723594885
C           0.19574965540371   -8.37676477834294   -3.49353385396228
N          -0.25852626661817   -9.30993844547889   -3.98036859588773
C           1.56191931671697   -6.44218292320879   -3.76408250463623
N           2.22344886097104   -5.83835981272858   -4.47881776091333
C          -0.95263789371581   -8.85157737868807   -0.57922279733448
C          -1.46053378071372   -9.10944032089435    0.68023247648911
S          -0.99609559081651   -7.86615192412550    1.83913009733020
C          -2.27754659463492  -10.20947846965238    1.10726744477708
C          -2.91038642978309  -10.18762500903454    2.34271359209125
C          -3.71749249316443  -11.22496181804809    2.77947090168464
C          -3.94259540371970  -12.36375853620887    2.01745129109968
C          -3.29868148003105  -12.43653329706422    0.74181805690429
N          -3.48369781526340  -13.51167373829891   -0.04486775762411
C          -2.88646960166067  -13.56137298841545   -1.20441423841271
C          -2.04786983875866  -12.51915715722674   -1.63642124920994
N          -1.85584065570750  -11.45776439835431   -0.90137831527577
C          -2.47216988159114  -11.36746631404332    0.29079836659465
C          -4.80039100907465  -13.40943944743511    2.49728334106133
C          -5.01381702326216  -14.66562353615493    1.96180780807423
C          -5.93277481646036  -15.40711126165542    2.70000525485220
C          -6.43549628423441  -14.71089781079791    3.81475384227428
S          -5.76249975869082  -13.15065084927756    3.95246144372400
C          -7.37791362244446  -15.53534183077329    4.47745134171445
C          -7.45968717599564  -16.76053304091337    3.78124684361437
C          -6.56279693090309  -16.71460845905951    2.63902066818364
C          -6.39791287589257  -17.68067979348751    1.69053578587849
C          -7.11771940864893  -18.89279649656691    1.75338223044222
N          -7.71267322785506  -19.87011731243488    1.82893671178880
C          -5.51576088616617  -17.52698593755076    0.59996623172566
N          -4.79371632505844  -17.40493661333495   -0.28186131786272
C          -8.39720605009245  -17.62765413568034    4.32007637934559
C          -9.05036592301291  -17.08174954866227    5.41795540291842
S          -8.44040915615918  -15.47429936297040    5.80395047142162
C         -10.05941055906821  -17.65100195768202    6.21928960467617
C         -10.87129643977829  -18.71296065887985    5.94472755330770
C         -11.55568824832024  -19.39430787458426    7.07771401130609
O         -11.65111246310194  -18.99436283322231    8.21339537006122
C         -12.03731735904127  -20.67657636052025    6.52016236089797
C         -11.77944631600776  -20.71203955200647    5.13750184336319
C         -11.19456380380010  -19.43372510787557    4.73149266685614
C         -11.22291443595551  -18.94244510767095    3.45291145452597
C         -10.88961596080136  -17.61811482250983    3.10691515829803
N         -10.65197316832849  -16.54353143284034    2.78070682017451
C         -11.68681397833822  -19.67590228044600    2.33912933877861
N         -12.05945845345614  -20.22438420300699    1.40346856058356
C         -12.10047749236992  -21.84053870765066    4.40355107510194
C         -12.69047263105005  -22.91418169574444    5.06167359296914
C         -12.96415972221084  -22.86281256427814    6.43056948915250
C         -12.63265404956693  -21.73612371585066    7.17262136280571
Br        -13.78297039262133  -24.33002402995709    7.29463284287911
Br        -13.11943634617099  -24.46283101779483    4.06817532214009
H           5.63795005422219    1.79804926137897   -0.75267761880981
H           3.34392014317040   -0.39238525241943   -4.58731897325798
H           2.89475683605961   -2.46888373606802    1.31680248467473
H           2.25261726596722   -4.37503693305308   -2.07085504342654
H          -1.13368110314468   -9.50785090721332   -1.40943731661518
H          -2.77945825208537   -9.32806427221986    2.98433223384549
H          -4.18725430657568  -11.14145196881853    3.74898313563926
H          -3.06767028023427  -14.44309548804123   -1.80300516606599
H          -1.53177655701794  -12.54874476740609   -2.58577654672231
H          -4.51490654909149  -14.99460645235437    1.06957379222030
H          -8.57737709656393  -18.62752689604509    3.97008009508194
H         -10.17627797668768  -17.23687250933737    7.21621473937243
H         -11.89512762637163  -21.91519592526656    3.34771099444916
H         -12.83463466891509  -21.68954221291140    8.23143001842452
