119
 SCF done       -245.610256670356          0.000524613402
C           6.17917086094409   -7.78749477052941   -7.95598313400416
O           6.59034487290462   -7.00305915966194   -7.13238876315806
C           6.84044976467315   -8.16015177776829   -9.22593905204607
C           5.95015200563376   -8.90166626977767  -10.02279523567426
C           6.36076122204594   -9.36249504277655  -11.26286631704818
C           7.65259255880840   -9.07115624498751  -11.68665057881076
C           8.52574882255757   -8.32369305053876  -10.89230829517749
C           8.11789038688030   -7.85868961245192   -9.64859853723660
Br         10.27267810511892   -7.93770887401259  -11.49717965524671
Br          8.21784514482838   -9.70767152038962  -13.37352155938756
C           4.67884510574725   -9.03130740128359   -9.31320838205194
C           3.51392143217410   -9.50612793550713   -9.85469628430449
C           3.40598660520676   -9.99501436666219  -11.17540636694279
N           3.25862759863459  -10.40491947329088  -12.23655538384719
C           2.25510373029741   -9.51929313269772   -9.21494986278283
N           1.19321388880267   -9.53751139353048   -8.77785426111124
C           4.87429976467334   -8.49454854813105   -7.97680297995391
C           3.98803904015405   -8.62685772495816   -6.94673411389260
C           4.15729545444352   -8.29312679574879   -5.57229183176479
C           5.50381445281419   -8.19046525848304   -4.98839631399114
C           6.42260717762221   -9.22135111440913   -5.17119556804356
C           7.66276058028822   -9.16867531342371   -4.57153899684115
C           7.98896971265979   -8.09161111509926   -3.75254062775749
C           7.09292505775808   -7.03355987734186   -3.60625234300505
C           5.86934530899971   -7.07363270519561   -4.23589403500155
C           9.23878260429890   -8.07624123417590   -2.96656994603171
O           9.39391916903357   -7.43522201829806   -1.95413130511487
O          10.19157516584280   -8.87961101243200   -3.45460342724964
C           3.01675212172251   -8.11589211685567   -4.80549832209922
C           1.71778663999577   -7.93150299563781   -5.48024384145013
C           0.59999179729459   -8.68211840190206   -5.11650255793841
C          -0.60198374052442   -8.50875778353025   -5.77284362584918
C          -0.71195655296791   -7.55316666961755   -6.77788950985027
C           0.39248299304614   -6.78070093429583   -7.12645939364586
C           1.60050195429894   -6.97931643366828   -6.49417538673907
C          -2.00578371640940   -7.28892677600393   -7.45657507637787
O          -2.26127513188683   -6.23642256974004   -8.00368632537106
O          -2.84938726284808   -8.30577455689765   -7.41579809434045
C           3.01576094761370   -7.94344455234219   -3.39601328268695
C           3.95458926345069   -8.28892265808700   -2.41059533897321
C           3.69158596880966   -7.64764067782138   -1.15192504796729
N           4.62500438412665   -7.65173048757571   -0.20229099256033
C           5.69607350105576   -8.38370230327373   -0.38943207795384
C           6.75626318243287   -8.31458390581434    0.64946042593093
O           6.67948216982532   -7.57945186624440    1.60841655604752
C           7.88044955818013   -9.24329551754183    0.43774410984991
C           7.92743604638511  -10.12899023025870   -0.56249612527501
C           6.89148480928580  -10.25830012053816   -1.60320849354888
O           6.95041219437979  -11.09457786075136   -2.47745872710601
C           5.79976641667181   -9.25327868320980   -1.51813142652091
N           4.95455934128385   -9.16609158909524   -2.51821474945044
C           2.46039620095219   -6.95946093859480   -1.10788092271610
S           1.72151285759323   -7.03699485684518   -2.67265980317615
C           1.96829824605145   -6.22674395099875    0.00678394915716
C           2.79015422179635   -6.33552985069080    1.23284806673317
C           2.92055665432531   -7.56909970562918    1.87172763966834
C           3.65410572981199   -7.67556047373260    3.03597017087665
C           4.25770483622219   -6.54829170751356    3.58568593383235
C           4.15806409255671   -5.32375763559492    2.93323685270243
C           3.43279201513716   -5.22241027980220    1.76211237799973
C           4.99889906480437   -6.69484878475340    4.86086675921175
O           5.27543848282015   -7.74706974573110    5.37359471499408
O           5.30539564573650   -5.51639667143459    5.42796457055410
C           0.88037999962345   -5.38083542015887   -0.05547860954715
C           0.08677323914151   -5.28580747291061   -1.30621456986023
C          -0.92982125293036   -6.21586308905773   -1.52246112562150
C          -1.63220908793883   -6.20104222532617   -2.70852552373982
C          -1.32852601541850   -5.26287913638602   -3.69232899021297
C          -0.35614595686080   -4.29720041079424   -3.45395569358586
C           0.34056406935191   -4.30262389918028   -2.25987111599284
C          -2.02925052126440   -5.37885843771879   -4.99575673220733
O          -2.90461870273896   -6.18880339164438   -5.19825310293412
O          -1.57108817913742   -4.55641197993856   -5.93239762352506
C           0.48589243192819   -4.45567586321404    0.95341309563881
C           0.59830791671522   -4.44191615645399    2.31118824193225
C           0.55781265745325   -3.11943386276413    3.00489117753374
O           0.18194812109080   -2.07004711292395    2.54329343681767
C           1.14897791917882   -3.37516686404714    4.33627587070575
C           1.34168811574527   -4.75837891858566    4.50271576464116
C           0.86857256448318   -5.45040373165006    3.30815025142539
C           0.55651955277409   -6.77977457239674    3.22919762737872
C          -0.02332557636797   -7.36459099591143    2.08724865498201
N          -0.50116203752814   -7.87318942183373    1.17645257613192
C           0.69675591143338   -7.68243005791951    4.30536066633431
N           0.77688550583826   -8.44669303526119    5.15630146565896
C           1.94275221028010   -5.24285154194882    5.65048212525838
C           2.35981186371813   -4.33099655650754    6.61223023004268
C           2.15235969707953   -2.95907748873181    6.44919318580006
C           1.53598652389563   -2.47091000946647    5.30366852932825
Br          2.72456939543402   -1.74572694796496    7.77745041662293
Br          3.24532016022702   -4.97787398712480    8.14552096910711
H           5.71571981239596   -9.94174365131478  -11.90344878191958
H           8.78188906580394   -7.28075305146206   -9.02474994754650
H           3.03417920834446   -9.08064639534498   -7.18433302925645
H           6.14800464155801  -10.08197974970717   -5.76235285186328
H           8.36611564954854   -9.97604772488585   -4.69763988454130
H           7.37546953004199   -6.19305925359514   -2.98985325530627
H           5.18298816842252   -6.24432567953165   -4.14223164759785
H          10.98359190957194   -8.83446409172290   -2.89581064548744
H           0.68984380468798   -9.42727704329712   -4.33996825340020
H          -1.46437288444595   -9.09863298491273   -5.50776434074442
H           0.29153983149769   -6.03801280055330   -7.90305398449825
H           2.46001970428083   -6.38306969043291   -6.76365490647901
H          -3.69841283200389   -8.06061754618133   -7.81704443845189
H           8.67274995802977   -9.17856291199130    1.17054398056816
H           8.75797048941734  -10.81500789122707   -0.66419113216261
H           2.44237338650030   -8.44185913008137    1.45091289966159
H           3.76661052883622   -8.62344601056632    3.53984548959367
H           4.66021060883331   -4.46035650544386    3.34053208222436
H           3.36885878272757   -4.27505613277025    1.24675680527797
H           5.79746897912300   -5.66898136345543    6.25137973795510
H          -1.14125978700576   -6.95354551122584   -0.76367016854240
H          -2.41320720933641   -6.91954489552407   -2.90347205834111
H          -0.14787054913396   -3.55489527017651   -4.20809057933484
H           1.10638054474013   -3.56360538448209   -2.07440029162839
H          -1.95888247404864   -4.79433889637962   -6.80433120979419
H           0.05979737890222   -3.53721268915142    0.55096989842687
H           2.11876492004525   -6.29581094434284    5.80275732028234
H           1.37652778363832   -1.41236717568854    5.16837214668095
