129
 SCF done       -276.384189073802          0.000954068986
C          -0.30882494467281   -1.01073913495464   -3.42990275000283
O          -1.03053658243199   -1.89371862047784   -3.84491920720359
C           0.05585982619480    0.22632352166843   -4.14996899985379
C           0.90693364794654    1.00462735079034   -3.34622321364441
C           1.37718912059675    2.21659250761006   -3.82547798944341
C           0.98935841310223    2.62720090552041   -5.09594600724528
C           0.14311748262774    1.84565392361003   -5.88544027174325
C          -0.33149704333033    0.63001936502388   -5.41032865599982
Br         -0.36497180971887    2.42933825643758   -7.60868155149609
Br          1.63261795964271    4.28096633652660   -5.74806434987538
C           1.12629587066381    0.31068409354194   -2.07815309088008
C           1.90444628325846    0.77645073623810   -1.05169100928358
C           2.60884451780001    1.99983667490008   -1.08746887611444
N           3.20488372124585    2.97962192436891   -1.05458182797011
C           2.12705925983077    0.12770612930993    0.18205375720462
N           2.36152389958251   -0.32582605144502    1.21100636232436
C           0.37755799635340   -0.93307596569418   -2.12957509909131
C           0.31768767737589   -1.86646938771302   -1.13068372081131
C          -0.35734145297118   -3.10089497802467   -1.06649774350863
C          -0.29873885393755   -3.89445167213602    0.06808229418569
C          -1.01886573390274   -5.09100331587392   -0.02693865422251
C          -1.12260884087942   -6.12735388363814    0.93794178065818
C          -0.56823677922000   -6.01303229861325    2.26774599745631
C          -0.03770177863982   -7.00471772560292    3.04597715214985
C           0.33438368918378   -6.55354210690619    4.32882402981506
C           0.08790647683874   -5.22994759591091    4.55900400339150
S          -0.61291159284419   -4.50890495761951    3.15262136335033
C           0.34217216814331   -4.43302401305157    5.78448737931916
Cl          1.03556392096247   -7.60129596203466    5.50042410410592
C          -1.81837172279000   -7.26141377734118    0.54526108928445
C          -2.43694871053483   -7.39360175609698   -0.72865976351725
C          -2.34071219714113   -6.35936118266936   -1.68874667539396
C          -1.63296766610335   -5.22259817393347   -1.30311946575954
S          -1.33158788745142   -3.84021741823383   -2.31598051587133
C          -2.91895442717676   -6.47106765851581   -3.00840943620246
C          -3.46397643280497   -5.47907331631337   -3.77863248394585
C          -3.89735931174147   -5.94061091551185   -5.03762808735364
C          -3.67925742803819   -7.27204715254246   -5.25956996305886
S          -2.92676672911366   -7.98464725505932   -3.87894332293277
C          -4.00944428787395   -8.08563422968293   -6.45525384117649
Cl         -4.63846460328799   -4.90209185888609   -6.19124326345811
C          -3.15433861989940   -8.59872928703589   -0.83525002635002
C          -3.08061657035299   -9.39793767543166    0.27961615948721
S          -2.11689627596599   -8.66339197016235    1.54073605934459
C          -3.66435987821845  -10.68257651454444    0.49178256867111
C          -4.44115143262726  -11.38523050937039   -0.46110916155515
C          -5.02106023398021  -12.67511786805334   -0.18057225177453
N          -5.74676430326939  -13.28625734768655   -1.14191495515880
C          -5.91076547599688  -12.71951146694449   -2.29035051296194
C          -5.33946925862451  -11.45378713599542   -2.56642334486220
N          -4.64107685040777  -10.83136364699073   -1.67627718455577
F          -5.49500385995278  -10.86152282813226   -3.75104513710995
F          -6.63362100631250  -13.37155891087789   -3.20147877690856
C          -4.84484970369829  -13.32970559521947    1.06214826611409
C          -4.04135890422539  -12.64270865775127    1.99407416416348
C          -3.47180996495190  -11.35056871668334    1.71833212231137
N          -2.75817803740323  -10.89738744508564    2.75045701326939
S          -2.79487072882600  -11.97728304884236    3.93567336472798
N          -3.71630896105841  -13.07343638920499    3.21436974861674
C          -5.40352626394389  -14.60020199647690    1.39735638634101
C          -6.28859662380848  -15.35913292264893    0.67131254322825
C          -6.62939010067319  -16.57933234172903    1.28139894000648
C          -7.52999830567622  -17.56129444107286    0.80495856019393
C          -8.17086342562168  -17.47263332136191   -0.48705242990719
C          -9.41860319014304  -17.91338791666205   -0.83749667058925
C          -9.69720618410572  -17.72992551527107   -2.20669518078685
C          -8.67711245198737  -17.16558195616096   -2.92065789425699
S          -7.33616306354903  -16.84247079392415   -1.88249371184198
C          -8.62309655983807  -16.83684120125064   -4.36628305644603
Cl        -11.20176261383510  -18.18494768310026   -2.90749326447266
C          -7.73497612013101  -18.65434605253831    1.63762830646125
C          -7.07222920072217  -18.83119914022026    2.87984271897685
C          -6.18691122927813  -17.83815330742791    3.35914993635662
C          -5.98262905161948  -16.73930510950819    2.53507499722223
S          -4.97041732648712  -15.37013432065391    2.90663586909435
C          -5.54274952967378  -17.97045759998593    4.64783218775935
C          -6.08790870920176  -18.42258353530882    5.81711523489090
C          -5.16704618666198  -18.41289561035943    6.88562260727394
C          -3.92037833321672  -17.96672915238075    6.55005618257262
S          -3.87389521725423  -17.52935988856014    4.87671265145195
C          -2.71673268438587  -17.84178529439400    7.40962820465696
Cl         -5.59649998494202  -18.92321025839601    8.47371319621406
C          -7.36697098465007  -20.08248420968928    3.45897326927550
C          -8.21346014633593  -20.86087337530232    2.70947586286651
S          -8.74332255044714  -20.02113681833293    1.26268991628966
C          -8.70720394957427  -22.14037366119881    3.06986020305639
C          -9.31052056129011  -23.06662547785567    2.27863501242759
C         -10.18022940926612  -24.11123414710639    2.88342210018872
O         -10.23915433631874  -24.43212362933609    4.04562709993665
C         -10.99914885330807  -24.61574829758522    1.75679854851763
C         -10.56030121166466  -24.03090441280623    0.55359544530203
C          -9.40168317756439  -23.18878216668239    0.83731660844042
C          -8.43445467635600  -22.83498831296694   -0.06360296804075
C          -7.17900306106517  -22.31590920118551    0.32336225337166
N          -6.12583583544693  -21.96150670660028    0.60912423504493
C          -8.54440025682425  -23.04414344016175   -1.45347650367722
N          -8.60480258256867  -23.17984899481056   -2.59105443714580
C         -11.20281498708572  -24.32857814254255   -0.63548676210890
C         -12.27481491569756  -25.21334710662002   -0.60615337110869
C         -12.69574801770006  -25.80184089689103    0.58877018547547
C         -12.05548716811460  -25.50258086529579    1.78479790427143
Br        -14.14793459866753  -27.01116676531388    0.59643208061907
Br        -13.16838760251994  -25.61051513754038   -2.22324718947739
H           2.03075644610053    2.84935311019943   -3.24789629920952
H          -0.98598323818947    0.01552203111532   -6.00867859372118
H           0.87038936238954   -1.64688664659019   -0.22542786663019
H           0.27495778663333   -3.60238423205902    0.92873556988989
H           0.12118101907061   -8.01340228937496    2.71482739500446
H          -0.59622606294474   -4.09446303811843    6.22379094855639
H           0.93912525074280   -3.55224959603340    5.55223114085345
H           0.87207639033297   -5.04071816060278    6.51364015462384
H          -3.59311122502206   -4.46246048424444   -3.45807761075217
H          -4.58490301950807   -8.96472211291146   -6.16815230464285
H          -3.10078052835638   -8.42705012511360   -6.95128492622166
H          -4.58913764367747   -7.49048539223045   -7.15620676314656
H          -3.73154746535064   -8.88647142273583   -1.69071449819689
H          -6.68262171824740  -15.02080806787617   -0.26581609576286
H         -10.13892629185183  -18.30944703643925   -0.14599696882344
H          -8.02498782961270  -17.57336342809958   -4.90396406672148
H          -8.16905775660352  -15.85916205897413   -4.51641138169825
H          -9.62757230530387  -16.83746739121605   -4.78263172748030
H          -7.11778156771107  -18.70585326214010    5.93282457609001
H          -2.97436920498877  -18.07466777718051    8.43973571770501
H          -2.31522706320785  -16.83077145462557    7.36149841886776
H          -1.93728371020883  -18.52784424626362    7.07872195841836
H          -6.92095597016661  -20.43628473528604    4.37040238166722
H          -8.67929601639253  -22.37592531270382    4.12923882870540
H         -10.90341529890854  -23.88653356884650   -1.57244817868486
H         -12.37519614828503  -25.95139652318658    2.71246679175607
