93
 SCF done       -196.223554807850          0.000941663710
C           2.00300316927523   -3.75840014448005   -2.15626944094691
O           1.17514279202902   -4.64242843089209   -2.10310567776256
C           2.26997630026765   -2.86835786697901   -3.30822777972527
C           3.32113590440731   -1.98603286944711   -2.99897682562155
C           3.74818022909320   -1.06673117452499   -3.94235453904061
C           3.11578322128979   -1.04212986469680   -5.18045684769744
C           2.07031609063713   -1.91942843442491   -5.47769079646799
C           1.64111294741176   -2.84557809993663   -4.53567085236354
Br          1.22851974191762   -1.86037078931854   -7.16846481696361
Br          3.69872893158525    0.20538258167686   -6.47489592181014
C           3.77433213533919   -2.25509694266146   -1.63833951189042
C           4.66866488205959   -1.51359979461626   -0.91657600471107
C           5.36209465443853   -0.39704387385486   -1.42941148000641
N           5.94541882757034    0.51557110225197   -1.80736331585549
C           4.95401832816569   -1.74836413646542    0.44671672023488
N           5.19660062892280   -1.86751006475134    1.56162635160900
C           3.02633776393159   -3.39565871484852   -1.14875131228042
C           3.37613918720910   -4.21148410553424   -0.11169873971599
C           2.60324646710789   -5.30102877609438    0.35533094639582
C           1.25854741191451   -5.48975929333870    0.52793113056783
C           1.02623723755881   -6.87257319131667    0.94767834260472
N           2.22768231738317   -7.49719463124247    1.04983621322469
C           3.24878385526890   -6.59306077014426    0.75322263292328
O           4.42353323495656   -6.85215661181012    0.81026120588159
C           2.47481298356575   -8.84854881178506    1.47121665788673
C          -0.29194747955814   -7.03988856472292    1.21897209922064
C          -0.92768977513420   -5.70662296864599    0.99693960626738
O          -2.07928004872368   -5.38286966996383    1.10258116744206
N           0.09361454626083   -4.81780432068393    0.59497564325044
C          -0.14255459553473   -3.41052262408565    0.42185605235923
C          -1.07525455363151   -8.18644429508000    1.60572974154175
C          -1.00727044183842   -9.41779153586680    0.92588310811603
C          -1.86271110581621  -10.51235681079638    1.28316838229268
N          -1.87670323863620  -11.63319964040861    0.52625335091719
C          -1.04971469919099  -11.71251026406407   -0.47236184839273
C          -0.14863138011485  -10.66487117266981   -0.77747917756540
N          -0.14368722631457   -9.54850072241478   -0.10958791959970
C          -2.75463723905451  -10.43916927126043    2.37387044422394
C          -2.84718953691003   -9.20475711875017    3.03065675205356
C          -2.01022839451218   -8.08953703251012    2.64564403011149
N          -2.18785010105656   -7.03699667858494    3.45256468505986
S          -3.29340311587749   -7.39690889311314    4.54364269633530
N          -3.60751762480832   -8.90197494008402    4.09143883172036
C          -3.41170776857107  -11.63786972418043    2.82858709185239
C          -4.66583793541815  -11.92243688800762    3.26386249996553
C          -4.72652805568046  -13.32883209247039    3.64611054207463
N          -3.51050355321288  -13.88582775161819    3.47015135914836
C          -2.62636464426406  -12.90450403370653    2.98540472741249
O          -1.45167746558947  -13.09817118162461    2.82042071928511
C          -3.10888109837268  -15.23269695132242    3.77236584638683
C          -5.97378145564033  -13.61644863146061    4.12490133069854
C          -6.75848862564623  -12.35082654267078    3.96264715326676
O          -7.93293779217848  -12.16458119682151    4.17782007649905
N          -5.90431171877723  -11.38800631525360    3.43387914353512
C          -6.32936195341542  -10.04962215934714    3.12657107325988
C          -6.49818972776621  -14.84228709778341    4.60478668456232
C          -7.56493224637746  -15.03370374574105    5.42593833723184
C          -8.21868972314082  -16.36925432238734    5.47661915097365
O          -7.78650851313144  -17.40785139205163    5.03566706775709
C          -9.52204302235457  -16.12892506521142    6.13355532466488
C          -9.59107142548000  -14.79066172463751    6.56521930384424
C          -8.32367146976994  -14.12980549177207    6.26604382403305
C          -7.85648799393742  -12.99720796299518    6.87313129564299
C          -6.52964452342174  -12.54319719281771    6.73581353692923
N          -5.44437505319646  -12.17431554701412    6.67197326739167
C          -8.61858347726542  -12.20497407144018    7.75656362840419
N          -9.20060148658792  -11.52996007883754    8.47872441957828
C         -10.73885236343554  -14.32185374058451    7.18057394951649
C         -11.79984561892643  -15.20111742348192    7.36366434322925
C         -11.71818505065730  -16.53213972563448    6.94725174334364
C         -10.57094056571574  -17.00499368261492    6.32328756840495
Br        -13.17092399678074  -17.70891616736438    7.22171567021874
Br        -13.37362019247315  -14.56345721469326    8.19163889358686
H           4.55640521337373   -0.38012507545115   -3.74793509162822
H           0.83729441394149   -3.53066378788941   -4.75655894610866
H           4.36243360795836   -4.12221273146700    0.32954189740428
H           2.00105226050711   -9.54645609143041    0.78132616783880
H           2.07821261962111   -9.01299530655938    2.47486423858348
H           3.55378230594299   -8.99798972301025    1.47402844843725
H          -1.14754614114008   -3.20515060275985    0.78983247708183
H          -0.08477702332981   -3.12622231244973   -0.62867108341895
H           0.58735120379438   -2.83583937315182    0.99377724189286
H          -1.09601128778493  -12.60865409227688   -1.07533839351429
H           0.55392944282011  -10.74494367444918   -1.59621642957109
H          -3.39525044543284  -15.49260258896981    4.79235732572548
H          -2.02511065340369  -15.28029939424969    3.67056287455633
H          -3.56531765130485  -15.93900911208679    3.07629042564049
H          -7.38695491214475   -9.97709716746635    3.37651010454989
H          -6.18628605664591   -9.84023403529831    2.06501674104456
H          -5.75341614651769   -9.33709340209637    3.71757670577068
H          -6.04713361928612  -15.75054050746803    4.21733675633077
H         -10.83431965934636  -13.29834659769018    7.50598831339440
H         -10.50083218727779  -18.03034907522933    5.99466666943063
