85
 SCF done       -183.596950418990          0.000849944181
C          -8.25254798601039   -1.69458244288399    1.84708358150506
O          -7.74805816480334   -2.79949525341511    1.83740962420591
C          -9.63773949973392   -1.36109800424776    1.46012916895169
C          -9.85902728963206    0.01372362640520    1.65503215686540
C         -11.10085393620728    0.55224276728567    1.36276115928451
C         -12.09567433498291   -0.29172549232880    0.88006838739671
C         -11.86187887428485   -1.65398231651829    0.68469789173757
C         -10.61877452763594   -2.20048638402262    0.97711066816878
Br        -13.23250143109740   -2.77338196039454    0.02366890026036
Br        -13.79287879781377    0.44299938087282    0.48871973526700
C          -8.62767945485594    0.62336388755536    2.16022284025626
C          -8.45519200137639    1.95930310987495    2.41574056065625
C          -9.46915349207588    2.92834136817165    2.25924705018555
N         -10.25317503910282    3.76040405500027    2.15818162633471
C          -7.25861280677980    2.56654804595789    2.85298477655408
N          -6.32703630740685    3.14312866991884    3.19738147450523
C          -7.64739185009594   -0.43355640943731    2.29200506985995
C          -6.38930270366425   -0.30752076785972    2.82923037626690
C          -5.36319974531601   -1.25393800963762    2.92427853442914
C          -4.14199094344570   -0.96810533462370    3.57173663099265
C          -3.22011649282674   -2.01321792383431    3.49288829814340
S          -1.61732946848888   -2.09883003843816    4.19606152730827
C          -1.61588904039937   -0.63225936751061    5.28365752807973
C          -2.11201143933074    0.59759926642346    4.56020604832495
S          -3.92392283170624    0.56855362204389    4.37771591749646
C          -3.71045445790353   -3.08281831130580    2.73136369755738
S          -5.34795889522610   -2.84172019560288    2.20027350100731
C          -3.07509433620311   -4.28903826140927    2.40479821350022
C          -3.60787138494193   -5.24024409350594    1.51881703069296
C          -2.79105742222728   -6.40707904497553    1.40632114989470
N          -3.12168894834516   -7.41698157505504    0.60976275607881
C          -4.22618699492651   -7.28843364187896   -0.09693142913174
C          -4.57854413976327   -8.41192735030299   -0.99820346389305
O          -3.90917963422824   -9.42418633596933   -1.06639238969680
C          -5.79413777348617   -8.20991880625844   -1.79804351533717
C          -6.53882771459748   -7.10092468591526   -1.73532187285387
C          -6.23197528106669   -5.94579248565292   -0.86963614102891
O          -6.90239959928688   -4.93764682061474   -0.88014118529253
C          -5.02877245777345   -6.10800478910333   -0.00984724884934
N          -4.71776647722920   -5.11180639265454    0.79372077817515
C          -1.61497207830802   -6.34671979211648    2.16879567617238
S          -1.54450034050422   -4.84485470607870    3.03045752140574
C          -0.64749543518823   -7.35747749972669    2.10848978786040
C           0.66645471295656   -7.38323296530012    2.57626411265122
C           1.35380941126475   -8.54737541567338    2.18451263322205
S           3.01883716824524   -8.96457478496446    2.50250346727470
C           3.45765138943327   -7.72419188976516    3.76734839663772
C           3.07927970004170   -6.32842671710240    3.32770589985685
S           1.28535454899545   -6.04014326685477    3.50619176881821
C           0.57718633239355   -9.38599596750009    1.38759945489134
S          -1.04677004474120   -8.78019919264147    1.19984044085152
C           0.96463714549870  -10.60926764340691    0.79886607392209
C           0.34971335314185  -11.20581520679579   -0.26156100870141
C           0.47088410535830  -12.66866038960641   -0.49583543646917
O           1.28816206430235  -13.42281635166939   -0.02521726785136
C          -0.67811617164142  -13.00108840263754   -1.37243467138526
C          -1.33844518332475  -11.81781839353756   -1.75301798851344
C          -0.60484860535096  -10.67745151290524   -1.21880188230234
C          -0.62773245525445   -9.41192114580507   -1.73816349587071
C           0.28696635303795   -8.40605857616599   -1.35935919954761
N           1.04117393834947   -7.57835658641536   -1.10563250960772
C          -1.52652457901881   -8.98035411074476   -2.73421831628802
N          -2.23585733617576   -8.56483770608875   -3.53527549058737
C          -2.49056850554333  -11.87291368164478   -2.51559684253899
C          -2.96367550569639  -13.12044672915016   -2.90168947229702
C          -2.28954553866795  -14.29179014959299   -2.54990516122617
C          -1.13785473316501  -14.23864289858885   -1.77406358540634
Br         -2.94639476394633  -15.97360785374115   -3.11088490063515
Br         -4.55526843557112  -13.21089931755212   -3.91246050773007
H         -11.32167442475281    1.59842290635023    1.49899039203509
H         -10.41911494807925   -3.25022481863058    0.82778255804465
H          -6.13046639940911    0.65892042718019    3.24757426858803
H          -0.57406954959280   -0.51943943019914    5.58366659785078
H          -2.22502794218615   -0.84963253886702    6.16126468465290
H          -1.66248434572396    0.69029038665276    3.57143678876777
H          -1.90861028775968    1.49930011895756    5.13748459007527
H          -6.05319812701913   -9.02511935096140   -2.46004757724753
H          -7.42364334745865   -6.98663960779741   -2.34703708352579
H           4.53776801990739   -7.81825741737008    3.87929920456968
H           2.97199271849573   -7.99144017113044    4.70632995433249
H           3.35505302606398   -6.14762685501750    2.28852217486532
H           3.54445349956841   -5.57756578179718    3.96597888256418
H           1.77091583415677  -11.15812529611923    1.27537648383665
H          -3.03790687335076  -10.98093721492462   -2.77317307151478
H          -0.62054338767371  -15.14146180662326   -1.48843575834191
