89
 SCF done       -188.886383730417          0.000777325550
C          -0.79278215227559    0.48787303447408    1.63237426235095
O          -1.37558378643007   -0.10603273347810    0.74326858109323
C          -0.19456383596360    1.83452807948865    1.52777747493121
C           0.39061734969224    2.17970591819373    2.75820665368715
C           1.01467719679988    3.40775515418445    2.89612071284152
C           1.04170097087660    4.26839084617136    1.80318822878371
C           0.45689772477265    3.91470543471177    0.58648719386698
C          -0.17005825203269    2.68337326038780    0.44212952420125
Br          0.50960982765946    5.10225257847327   -0.88296451136928
Br          1.89337221557036    5.94575114714429    1.99485959249796
C           0.19012788750693    1.07625934096200    3.69992966319856
C           0.63680343005435    1.06752044183960    4.99802146075568
C           1.34760747514888    2.12949316286345    5.59709204747973
N           1.92666214995028    2.95586072861262    6.14390387375287
C           0.45636388273540    0.02128244467563    5.92331436064897
N           0.34507130828884   -0.78214842740307    6.73840333117492
C          -0.54664718576044    0.04351216575684    3.00417117333945
C          -0.98275778956536   -1.14095760501732    3.55942483409810
C          -1.66331577879780   -2.21506993008762    2.98079361140465
C          -2.03977200039536   -3.38117642455296    3.68878406082403
O          -1.90290046054256   -3.59815841772995    5.01535443227013
C          -2.28582819952632   -2.61213446375010    5.96569380271097
C          -2.53764051977218   -4.40780400662976    2.85761371277463
O          -2.88116287972091   -5.65161179776594    3.18568986402692
C          -3.21241039435517   -5.99274531373608    4.51938185358220
C          -2.58958445418942   -4.00978445260429    1.51158426397569
S          -2.01853874324505   -2.38815759138846    1.27691579779758
C          -3.07628069493191   -4.73939857264352    0.40844288048129
C          -3.88272105716920   -5.89025688943779    0.34772204276270
C          -4.18083687787943   -6.26172171448970   -1.00743693829420
N          -4.90845614790641   -7.32797238189851   -1.31563810702756
C          -5.37220278186119   -8.04911254046651   -0.31666949630832
C          -6.15281503779010   -9.25948377482308   -0.65527021086502
O          -6.39067857771825   -9.58481675355015   -1.80294256682729
C          -6.62223956404866  -10.03742685307752    0.50012163785507
C          -6.39620920302548   -9.67934223097764    1.76920372887514
C          -5.65152184724564   -8.47109685269563    2.16427924846094
O          -5.47694906851965   -8.17399756639524    3.32822116807907
C          -5.12083643323015   -7.66086604665695    1.03806494504326
N          -4.39814580864956   -6.60769515584428    1.34848088608499
C          -3.60410878117582   -5.42235322167638   -1.96940551569021
S          -2.70690066378586   -4.16898534793348   -1.20740995454265
C          -3.69953188534033   -5.69379344498482   -3.33966745691946
C          -2.95570895226436   -5.13750224818350   -4.37748924374923
O          -2.13472319940680   -4.12054769064517   -4.06235480979518
C          -1.15715481465475   -3.67956114616005   -4.98580390398232
C          -3.20021383736923   -5.77789412217411   -5.62323853053856
O          -2.48145892671546   -5.39986975775974   -6.70166459890000
C          -2.50223683122010   -6.16351189514161   -7.88843548725975
C          -4.13834252977773   -6.80522195181510   -5.51473323309965
S          -4.72238055935286   -6.97678795881956   -3.86923266625084
C          -4.70938555571674   -7.66620059119135   -6.48821746772639
C          -5.27129092059183   -8.88377920686055   -6.23995848310516
C          -6.26361831583075   -9.44996985371130   -7.18972582746491
O          -6.46617291195394   -9.09996730336951   -8.32900964341584
C          -6.98340509357168  -10.48229645361254   -6.40913515577730
C          -6.37627862172922  -10.62514219065375   -5.14718535193054
C          -5.20493951223711   -9.76028981060998   -5.08535874911649
C          -4.13217669453693   -9.93376295470923   -4.25432950154706
C          -2.92055899754757   -9.23513525185868   -4.43753084696482
N          -1.91269769078870   -8.71414268659715   -4.61489195610283
C          -4.09569686185992  -10.84583558340915   -3.18132198521560
N          -4.00786976937654  -11.56204943220756   -2.28908801327132
C          -6.90909759363094  -11.49144346192553   -4.21011009031010
C          -8.04670385277056  -12.21094458621932   -4.55200830662069
C          -8.63195764053380  -12.08716291389050   -5.81369194687975
C          -8.10118247145229  -11.21397927220316   -6.75510627353232
Br        -10.16749431021482  -13.09847996086597   -6.25436290146731
Br         -8.80586020445449  -13.36813666242064   -3.26827338973564
H           1.47719600515017    3.71936644082334    3.81831758443463
H          -0.62677386881469    2.39683446514884   -0.49233168978492
H          -0.73949207878477   -1.28276542231891    4.60203633987430
H          -2.89443050827870   -3.12659167867984    6.71264134554592
H          -2.87241974632634   -1.81355928560616    5.50877419930211
H          -1.40564115348502   -2.19490470787161    6.46280648985310
H          -2.32066053338425   -6.06409841371889    5.14567220668962
H          -3.70471583729525   -6.96110578386744    4.43828719724192
H          -3.90858261717286   -5.27279466648605    4.95305833341608
H          -7.17492988222588  -10.93569164972981    0.25999394095610
H          -6.76124462424726  -10.27852994564612    2.59258274031381
H          -0.60085845207540   -2.90627019719789   -4.45871703560380
H          -1.61632232896242   -3.26062087524988   -5.88256092050627
H          -0.48530407511269   -4.49262637093447   -5.26700225702952
H          -2.46366145249270   -7.23397991938409   -7.67304130424410
H          -1.60851535666749   -5.86765559808228   -8.43779956824159
H          -3.38273218242547   -5.93345209083007   -8.49302979539759
H          -4.84774297215092   -7.29938161688962   -7.49780957048507
H          -6.48635455970815  -11.58169121411967   -3.22309747239172
H          -8.55475766147082  -11.10648974822419   -7.72824854885361
