63
 SCF done       -129.106625502176          0.000980045211
C           0.43596144322967   -0.01955478757618    0.89000273666610
C           0.77584475540747    1.19116963415830    0.45020126229920
C           1.95549797733681    1.91127619406918    0.84046819622843
C           2.95970112486757    1.54455729613740    1.71151620252232
C           3.94315104027532    2.53078574019208    1.82979771447593
C           3.68150449219585    3.65879262516892    1.03358360658956
S           2.23105331155619    3.50086506064472    0.14862232039436
C           4.72478681255710    4.59704287317486    1.21989031562393
C           5.65060893128648    4.06618057661381    2.13992397563231
C           5.20264818711587    2.73434483163226    2.52707251639514
C           5.85489230027511    1.83950657505178    3.32169854779386
C           7.14335999523448    2.07287867933388    3.85212257668125
N           8.20683562308874    2.20796599781514    4.25625574919413
C           5.30512796100639    0.57491958273117    3.62275954347929
N           4.85814347539604   -0.45119262584685    3.87268351317147
C           6.69768901614284    4.93453863311420    2.42559214606265
C           6.58954100771467    6.12042721318069    1.70913269984591
S           5.16438416193577    6.15282228750283    0.67512123389806
C           7.47667629557769    7.21178297138099    1.75015651387059
C           8.53908101172691    7.40625205931835    2.64364205950367
C           9.26398492493913    8.62640973412919    2.40203984044440
N          10.28449308065312    8.98733348998455    3.18340904697672
C          10.58560031524482    8.18848122186795    4.18299149708618
C          11.69652152720025    8.61016689795376    5.07418940552467
O          12.21109938847601    9.70488547653199    5.00619381298456
C          12.10965014142820    7.59956130647532    6.06519308519046
C          11.43296965923401    6.46957449175380    6.29294778014055
C          10.19535607815722    6.10423210770357    5.57959869604636
O           9.49502777647059    5.17683459808787    5.92213958595257
C           9.86290891584544    6.97777106205243    4.42519928500842
N           8.86370551394246    6.60166436661578    3.65834071908345
C           8.75450002631300    9.36452914899835    1.32472772059453
S           7.37783078924751    8.55042826552024    0.64853483553384
C           9.24149145273191   10.58673976224539    0.82604134901430
C          10.42646074786005   11.21746522661138    1.18586793882623
C          10.60494078264685   12.40747825942143    0.49025024303419
C           9.54295795145725   12.70174401884106   -0.38790148410987
S           8.33997969225024   11.49204791461241   -0.38601664605375
C           9.80080317807973   13.94651455253180   -1.01043524544242
C          11.02535552255926   14.44354284261380   -0.53265459535069
C          11.58717353248243   13.48052822601362    0.40054520161705
C          12.80676984383223   13.53992757644304    1.00600083593078
C          13.66756349978576   14.64551329858648    0.83569532914728
N          14.36592499470205   15.54528015790256    0.70271607028166
C          13.33160744198180   12.48989176032583    1.79167250009004
N          13.80775852552585   11.63555008376923    2.38883630983892
C          11.36663335383324   15.67610392558706   -1.09657810824431
C          10.41693796316199   16.12070658611313   -1.99216265153871
S           9.07864825775992   14.99535731265645   -2.14644723360702
C          10.39152245116511   17.32509484244646   -2.77401245452117
C          11.32571438218980   18.27447046706626   -2.74964080323329
H          -0.46427428800107   -0.50054921034972    0.55157381983330
H           1.03981302608582   -0.56678458910970    1.59232510040777
H           0.13992436044795    1.70564605951709   -0.25864860623565
H           2.97112836340760    0.60702488242247    2.23520863156502
H           7.50531361497177    4.75842763341186    3.11332855540127
H          12.99359214897889    7.85262260603746    6.63489029931575
H          11.74532394316410    5.76854214474972    7.05512831760044
H          11.08901305122143   10.80227447931157    1.92408241492843
H          12.26076337123125   16.22459840637892   -0.86631970371395
H           9.53005337216857   17.43250759074436   -3.42045683378957
H          12.19645350126847   18.20822852302445   -2.12118739394229
H          11.24178489996798   19.15213107461927   -3.36518989793752
