63
 SCF done       -131.626740614170          0.000980335326
C           1.48897219209914    1.91859762104559   -0.98288660376548
C           2.40994981076882    1.97960860971842   -1.94408382076297
C           3.16725975481688    0.86256589964305   -2.43405609843221
C           3.12614392203921   -0.46124386218653   -2.04434597514023
C           4.01951797023745   -1.25063547720913   -2.77073130548864
C           4.74952086710212   -0.51664963194358   -3.72453388468482
S           4.33158712542068    1.13701573163786   -3.71798234869543
C           5.61613064298462   -1.39579706738994   -4.41783446992785
C           5.43079544213284   -2.69422808078827   -3.89694986068352
C           4.42826353934258   -2.64312623588663   -2.84421126705668
C           3.97258456948272   -3.68248643781498   -2.08686125090535
C           4.45005134827398   -5.00023515752362   -2.24834080709222
N           4.82961513777296   -6.07551140047620   -2.37010164624992
C           2.99242508338244   -3.50795697935477   -1.08770305325271
N           2.19522234268161   -3.36868573234480   -0.27528603687542
C           6.22803864289043   -3.64245323653934   -4.52007569429637
C           7.02474233048759   -3.08107838808619   -5.51218811758221
S           6.78290913449514   -1.34678705851052   -5.66707565339372
C           7.93832529979783   -3.76279553267708   -6.35265864230552
C           8.70733173704110   -3.06822049324780   -7.31604171918467
C           9.63867839027122   -3.71663362407846   -8.20885438895940
N          10.28498904454304   -2.97761206701687   -9.12153498481426
C          10.08620005173136   -1.68366035662447   -9.17866493445579
C           9.19550623569532   -1.03459805729198   -8.26390163950822
N           8.53848130391679   -1.74300911893660   -7.37852872876889
C           9.00643354345965    0.36807659792360   -8.30576584271892
N           8.86768408267997    1.50368421924480   -8.36139858574905
C          10.74632143076367   -0.91707221308771  -10.17282135620104
N          11.24194648810829   -0.25251083492798  -10.96271445702309
C           9.85210956554704   -5.11694658944074   -8.15404912717043
C           9.07423722635751   -5.80906606755545   -7.19742371176455
C           8.14133074203770   -5.16072044541000   -6.31057578179582
N           7.54048660778186   -6.03924047996188   -5.50768141233250
S           8.08029576271813   -7.51407998634553   -5.82370921713824
N           9.10746471076146   -7.12674194971513   -6.99773236722970
C          10.75779077365603   -5.82416579790654   -8.98824490047195
C          11.67999193833508   -5.31669215327962   -9.89615125877721
C          12.38620618443569   -6.32250217381555  -10.54098994202951
C          11.99702665755700   -7.61512254826122  -10.13231687763978
S          10.78478545028388   -7.58460670326713   -8.93227164755439
C          12.75752761125472   -8.55898015247776  -10.86411658359731
C          13.62525376518718   -7.87132524779587  -11.73168104650642
C          13.43185026194105   -6.44263952910882  -11.54613563290782
C          14.10544809123105   -5.42891020053336  -12.16138761841468
C          15.10681962220397   -5.67301780151952  -13.12436099129607
N          15.92152478533380   -5.87521536420175  -13.90580467331034
C          13.86172000642974   -4.07202430561477  -11.85728272832330
N          13.68213476459986   -2.96928995256773  -11.60051048304835
C          14.41340255660243   -8.72763493259967  -12.50372524838096
C          14.15459896148359  -10.05630793944640  -12.23567771585301
S          12.91844017474338  -10.25166282630746  -11.00504596838391
C          14.74044599781046  -11.23379847511466  -12.81170583451933
C          15.68428625485950  -11.23840643449430  -13.75228008334164
H           0.95764690813426    2.79824759889217   -0.66645470012851
H           1.23680324378584    0.99862064145650   -0.48517357509454
H           2.63193977511781    2.92638265622723   -2.41899149143704
H           2.47710617970057   -0.82899300435459   -1.27157100372953
H           6.25420305205386   -4.69281590592719   -4.29544570040151
H          11.80457603145344   -4.26250673760767  -10.05849591182174
H          15.13820184146858   -8.40227172290606  -13.22646726950837
H          14.35883640356160  -12.17021287508754  -12.42583639461030
H          16.09180044983764  -10.33117548705857  -14.16258147323393
H          16.07809017723214  -12.16120874230177  -14.13905845413963
