92
 SCF done       -174.802471128750          0.000954294717
C           4.02283686277096   -1.63077755663187    1.12923492941474
C           4.15928985906877   -1.81042028790355   -0.18110768062672
C           4.67229299658812   -0.82433489267930   -1.09344282597681
C           4.82566923073556   -0.96136164390557   -2.43917951333930
C           5.35719196135432    0.18742573096467   -3.08113810470371
C           5.59078150023659    0.38894008851777   -4.45460149650446
C           5.40250038517462   -0.64942901580313   -5.44708526535000
C           4.92922646493343   -0.51678730250060   -6.72112261950009
C           4.95397571274280   -1.72926003741865   -7.44329004466746
Cl          4.39831960249777   -1.84079878031572   -9.06832383506628
C           5.45065715534840   -2.79234048570278   -6.74763681922244
C           5.63722940639705   -4.19504137581149   -7.19703380278617
S           5.89396447018383   -2.29614362309313   -5.15012720676609
C           6.04830212957642    1.65098765000809   -4.82531111440509
S           6.44488277778588    2.13728835286637   -6.44811915895102
C           6.97845558747992    3.70561829461260   -5.88819889391647
C           7.47218294680011    4.70121887092480   -6.80871699236695
C           7.55690428470148    6.03517516606043   -6.49809542871287
S           8.18544812270665    6.98368623876949   -7.77225442917642
C           8.34879294638322    5.57611599628416   -8.78897939635517
C           8.88004363129028    5.71687547107742  -10.10893311271439
C           9.54269444527642    6.79976107144950  -10.60400284600297
C           9.95513987196154    6.64973309987608  -11.95114373721469
C          10.65203540245865    7.57145836102036  -12.75528847113391
C          11.02161349665008    8.89259496541467  -12.28813454567950
C          12.17902207178820    9.57327901033190  -12.53359099888102
C          12.18570175388974   10.86454395106420  -11.96270481229513
Cl         13.53433324925479   11.92483937130884  -12.11038031239890
C          11.04444008999553   11.19379704267347  -11.29243103973426
C          10.71002933776365   12.45293386053907  -10.58039805012081
S           9.92521049251577    9.87432757372638  -11.35164189135085
C          10.96061617156355    7.15545856298597  -14.04735758791925
S          11.79991946797989    8.10499357269733  -15.23842652819224
C          11.66981694081048    6.81944452676185  -16.41971221281511
C          12.24454582015515    7.02220894477987  -17.72483172171876
C          12.17186333428433    6.15904236547542  -18.73424364727927
C          11.01583149516927    5.73630324239327  -15.91662686068989
C          10.58195446411388    5.89612688316240  -14.57588510891859
C           9.87005457754019    4.98113291645733  -13.77587832554751
C           9.41322708054055    3.69535859239154  -14.26485825791967
C           9.36675532750151    2.50874870999961  -13.59081342590613
C           8.79726056913775    1.46669307861715  -14.35515546530927
Cl          8.63178887384444   -0.13307770096053  -13.74348275767604
C           8.39111303754327    1.83709207693378  -15.60358625308905
C           7.75791667769848    1.01056551520808  -16.66190861566334
S           8.72960290466969    3.51537502113732  -15.85986510752681
C           9.59423177011988    5.38391014362419  -12.47241328711521
S           8.72839953815876    4.43710305340513  -11.29403793652259
C           7.92201155642443    4.44434998831666   -8.13843280329398
C           8.05861434903868    3.06956669087173   -8.72154080775999
O           9.02794510019194    2.39026651599336   -8.55945029214961
O           7.01598403896267    2.64917871891825   -9.45707017406170
C           6.83871070926411    3.84032018936504   -4.54095750805948
C           6.30320458022763    2.69256013398448   -3.90261198262431
C           6.07100386720135    2.49073174589113   -2.52877975010347
C           6.27950431016885    3.52965611889122   -1.54043223574411
C           6.77796264822885    3.39841137452442   -0.27630597426957
C           6.78192422151955    4.61506889911486    0.43928664379849
Cl          7.37217424710014    4.73706641247941    2.05194926336664
C           6.28418477779922    5.68091982452913   -0.25126116474958
C           6.12412808970662    7.08637096975379    0.20135924762677
S           5.79952468345334    5.18084587041622   -1.83528582102853
C           5.60272574679003    1.23324734671631   -2.15800858318673
S           5.18884619145666    0.75319598264958   -0.53675578238300
H           3.63354501718350   -2.40237784221951    1.76931779585585
H           4.29893388592807   -0.70108224882229    1.59937735038074
H           3.87898309335897   -2.74887388699997   -0.64206274668222
H           4.54992356250914   -1.85855090427704   -2.96194004388371
H           4.54125354061875    0.39714396501160   -7.13038979671379
H           5.09742300611718   -4.35616307539235   -8.12713051394245
H           5.27313821085850   -4.89212566261118   -6.44426554740864
H           6.69380080730532   -4.40480007265726   -7.36718407074956
H           7.26986329189040    6.50883211608636   -5.58134719044757
H           9.74398764384247    7.67034236850694  -10.00719335648930
H          13.01629753470197    9.16670684320085  -13.06922330778337
H          11.53489603089475   13.15497240652507  -10.67339511415626
H          10.52687746801894   12.25961797171658   -9.52365948908756
H           9.81106558951505   12.90417320206600  -10.99929691359833
H          12.76182705482081    7.96395069220903  -17.85435718984419
H          11.65982732692038    5.21670060802828  -18.64706876536292
H          12.62527385350549    6.37411882617323  -19.68556135722674
H          10.85655760300842    4.83859112001175  -16.48278510509596
H           9.75160946217022    2.35749847975562  -12.59937222060941
H           7.55240330693672    0.01675338242924  -16.27217605726327
H           8.41637934877323    0.92075529146936  -17.52598512600859
H           6.82529599782273    1.46289275310594  -16.99680633722275
H           6.30136645022646    3.29768664212388   -9.50599708925459
H           7.14223144008591    4.72238864543575   -4.01010153000876
H           7.16247435006464    2.48061293715400    0.12741969973010
H           5.13871059587219    7.23497774746457    0.64626043537874
H           6.22563903443661    7.77304444475373   -0.63636377132074
H           6.87550007794218    7.31950179652858    0.95354769970423
