140
 SCF done       -277.276024798342          0.000905533085
C           2.89712599181896    0.81844172131361   -0.70311770302422
F           3.86030189137060    1.35575893708995    0.07259197490819
C           2.13300074167596    1.64223924953440   -1.53022010043197
C           2.35587293434225    3.12637219909742   -1.69861361160540
O           2.08948250010133    3.69161502235718   -2.71681121424275
O           2.86164313119776    3.78079694498770   -0.65179796910516
C           1.14405248805967    1.00313491416153   -2.28437275813473
F           0.34402044914390    1.70790371382642   -3.07668699267620
C           0.94081851854374   -0.36754073937620   -2.20778689693591
F          -0.03315275054270   -0.89123165261765   -2.96065750640772
C           1.72262348835795   -1.20505352998347   -1.39650508455126
C           2.70770309141226   -0.55059313060671   -0.63870648421799
F           3.48402309264951   -1.24111509861250    0.20878209508260
C           1.52117874085449   -2.63170541234099   -1.32545505272168
C           2.41936631138584   -3.57827889933382   -0.90984054304159
C           1.91103642882258   -4.89498523233671   -0.93363323445444
C           2.57661071486399   -6.08382938765148   -0.55719847198168
C           3.90352681932635   -6.05282183172871    0.01825017138822
C           4.40618778605834   -5.17184084882640    0.93748845853564
C           5.73666116360785   -5.44936101735280    1.30392499169020
C           6.25968472552334   -6.53237973698298    0.66481102634697
S           5.09938758336391   -7.24741942472397   -0.40341213686353
C           7.62085216058706   -7.11418167663816    0.79133876692501
C           1.87815349600007   -7.26852906719219   -0.75037844022649
C           0.54557264041727   -7.31187045148682   -1.23563920105543
C          -0.14376851351225   -6.11950420460551   -1.55350173950787
C           0.58060097620988   -4.93962463627269   -1.41940323077638
S          -0.00904263007238   -3.34733137347301   -1.79157379734800
C          -1.52281287682375   -6.14128022414339   -1.98641359440652
C          -2.54501574723290   -6.92459393909278   -1.52283959902755
C          -3.77055753116053   -6.68198100602187   -2.17149887016115
C          -3.69422400786224   -5.72261047071341   -3.13514986246932
S          -2.08886887497551   -5.08293061052033   -3.25162366369901
C          -4.77042489551717   -5.21292620675245   -4.02355598733721
C           0.08064742124522   -8.63638904863883   -1.35747959096632
C           0.99054181021858   -9.58328774851023   -0.95399308251283
S           2.48978226863633   -8.86937622157223   -0.41960368988299
C           0.80877177306238  -10.99905909578222   -0.95091622244593
C           1.85165078547015  -11.87181148449274   -0.58255334985417
C           1.70468216015344  -13.29834731649989   -0.59327305656291
N           2.75708735988013  -14.07136936433646   -0.25862860427299
C           3.87574655540792  -13.52009443721376    0.08247659395431
C           4.01437973004569  -12.10838203635496    0.11576054573951
N           3.03176576717715  -11.33445473151830   -0.21033436844440
F           5.16094173606204  -11.54121257710903    0.48418534830943
F           4.89415628008105  -14.31642730802847    0.40033703942493
C           0.49417519828961  -13.93379154266353   -0.93918538033464
C          -0.56360641122095  -13.06578678715825   -1.29695539225087
C          -0.40756515484421  -11.62534976245839   -1.30726336867332
N          -1.53443236510388  -11.01454628392288   -1.67779504524510
S          -2.66046211087059  -12.11524297289696   -1.98562346289844
N          -1.79325868380045  -13.42684567303932   -1.66742723327389
C           0.37168985528120  -15.35390128979694   -0.92645070473048
C          -0.76582224962419  -16.08661532342278   -1.17293573495318
C          -0.57257605561631  -17.47943118069031   -1.10000427278587
C          -1.52939692254078  -18.50170528979202   -1.30585554902005
C          -2.87231847268837  -18.18990651904243   -1.73840704431254
C          -3.26996856400532  -17.24589401547715   -2.64645036229534
C          -4.66429006114261  -17.20489987974070   -2.83484496616699
C          -5.34178628728720  -18.10713283247096   -2.07243806915547
S          -4.25296882935704  -19.04704555531779   -1.10623896704439
C          -6.80695620202316  -18.34327627391360   -1.99961627295275
C          -1.09308815031632  -19.80160969743412   -1.07669699852679
C           0.24056346951773  -20.12580575013359   -0.72863994160087
C           1.20880013570455  -19.10900108884240   -0.59105156945272
C           0.76270713356504  -17.80343610599407   -0.74915926592119
S           1.74244476882707  -16.37141617508728   -0.56622924061596
C           2.59609668241875  -19.42306676595724   -0.31926571225741
C           3.35759381518222  -20.41786899047283   -0.86794309179891
C           4.68558266811215  -20.42606270691973   -0.39884337799771
C           4.94265868860369  -19.44744922768866    0.51194548692390
S           3.53621921895362  -18.47876170409295    0.80153254472559
C           6.21405736117775  -19.15519691466760    1.22325143773267
C           0.41204157915987  -21.51838417282897   -0.53695928208514
C          -0.71700217511153  -22.25165807778949   -0.75172364232845
S          -2.07058442909806  -21.23842939591459   -1.20359737719353
C          -0.88434834885793  -23.68413102267736   -0.64234622321277
C          -2.16490941935943  -24.24456933079104   -0.54535406368439
C          -2.35789413007464  -25.60510686662685   -0.43204926882429
C          -1.24678191297794  -26.43746130984899   -0.41007168525650
C           0.03494748558714  -25.88480242733837   -0.51355158929888
C           0.23077853866071  -24.52681021673904   -0.63333006417300
S           1.24759011173138  -27.14310249498337   -0.47709892946919
C           0.00597894525929  -28.34918027671424   -0.18641677270144
C           0.35700573884488  -29.65091619011582    0.09583503538200
C          -0.38375640971669  -30.67612421160701    0.68907801501644
C          -1.55290272510191  -30.68636951098831    1.42501593057299
C          -2.34285359778648  -29.66625229032489    2.04557468954757
C          -1.92863604396603  -28.41161483357781    2.44616060267927
C          -2.79384011188829  -27.39917716558752    2.89334367764249
N          -3.46083259982078  -26.50480512454083    3.17140131624231
C          -0.58404785231810  -28.01646895794124    2.50653222591321
N           0.50284032682000  -27.66092822976572    2.61776987553576
C          -3.64362456191774  -30.25484086981963    2.38426661123978
C          -3.58234164858452  -31.63981861553723    2.15324088069247
C          -2.25771741410770  -31.97928526240797    1.58802301645236
O          -1.84754638087813  -33.07763695404914    1.27625245051536
C          -4.64908363149099  -32.46745488480791    2.43667956912692
C          -5.80592778117384  -31.89551869770846    2.95072552205165
C          -5.87639037277590  -30.52914599503340    3.17182628396759
C          -4.79941509595137  -29.69376477221570    2.89865515579083
N          -1.24391972809466  -27.81535762317622   -0.29101953572700
C          -2.38857057541196  -28.57547084174449   -0.73773797879465
H           3.11997418285568    3.22449532033795    0.09536552368167
H           3.43443116846104   -3.35961901623188   -0.63904785356638
H           3.82706119593182   -4.37837991204850    1.37495462914218
H           6.28582935961732   -4.86488614971621    2.02063338042385
H           8.19214971102645   -6.56829408485762    1.53818895057932
H           8.14970488742244   -7.06584484646060   -0.16030518393628
H           7.56222546285408   -8.16156187059260    1.08504323784221
H          -2.43266166747588   -7.61986411496568   -0.71077542303124
H          -4.68072556061623   -7.20125966504291   -1.92835197072829
H          -5.71071582271021   -5.70769342336593   -3.79264817875380
H          -4.52409886492240   -5.39519068045923   -5.06940722363259
H          -4.89582632405054   -4.13819909314490   -3.89599240739615
H          -0.87967898596620   -8.90473350274789   -1.75425299397826
H          -1.71029976030586  -15.61626013613564   -1.36967486928902
H          -2.58055433647482  -16.63125366256404   -3.19628687688870
H          -5.14883942184601  -16.52788666247810   -3.51606206263303
H          -7.32815360021730  -17.65863766014313   -2.66435453253708
H          -7.17057016481123  -18.19331495706844   -0.98341354712706
H          -7.04604838651312  -19.36617447917035   -2.28942734701804
H           2.99130689003574  -21.09096452476829   -1.62295426023578
H           5.42585867134561  -21.13265034849140   -0.73048966286247
H           6.10174840003355  -19.31987624182923    2.29454093071850
H           6.50346120460325  -18.11599638269850    1.07561924429551
H           7.00634506302218  -19.80029918399739    0.85180189555140
H           1.33895808168621  -21.94388450623907   -0.20042007583926
H          -3.02147723351806  -23.58818951309476   -0.54626874106348
H          -3.35203959502059  -26.01037572952526   -0.33608933754705
H           1.22872820417609  -24.13246757020704   -0.72382924696448
H           1.38118858327167  -29.89704141114645   -0.15090658715445
H           0.02834328148684  -31.67219228263051    0.55137342949013
H          -4.57186236211903  -33.52949631189750    2.26174858700691
H          -6.65662904140532  -32.51902643099810    3.18141632078230
H          -6.78432784029709  -30.09982308304374    3.56852697951503
H          -4.87980560941637  -28.63435790665343    3.08360452496658
H          -3.19028072002887  -28.57148493386153    0.00201127079558
H          -2.09132103078391  -29.60311486133873   -0.93176286128753
H          -2.76688996046844  -28.13309877076667   -1.66227185511843
