104
 SCF done       -231.276448075224          0.000598402053
C           2.29106534895825   -0.27858236643499   -4.65021307712623
F           3.11440502862614    0.78068245880477   -4.53641199031129
C           1.17952587370716   -0.20474645202410   -5.49047709566083
C           0.85756903199371    0.97126250198605   -6.38390530749085
O           0.26359128878350    0.83357491536896   -7.41096872019484
O           1.26505929795223    2.17088588038385   -5.96998661607592
C           0.36665468691098   -1.34204521860905   -5.53019014405609
F          -0.73319461358715   -1.35833964140488   -6.27307709525314
C           0.65827690759351   -2.46923762987587   -4.77710727526108
F          -0.17959661578633   -3.51192756146880   -4.86806979213123
C           1.79097240266187   -2.56330858750939   -3.95101512444377
C           2.59341757791410   -1.40947530858640   -3.91176197059742
F           3.67324310684422   -1.36074130128618   -3.12211759769551
C           2.10452683899859   -3.75043411935257   -3.20052126714381
C           3.32302509159015   -4.10405168133288   -2.64480251927222
C           3.26402203430759   -5.33286176865592   -1.99283686943773
C           1.98134330187322   -5.91573828050710   -2.03927136172714
S           0.86723667040160   -4.96909524312784   -2.90273685536692
C           2.01805943602588   -7.15905093596996   -1.36167827311460
C           3.33070020565937   -7.36404010126110   -0.89195443897332
C           4.15424064279883   -6.22497392207992   -1.26951452749233
C           5.48013296368866   -6.04547162667324   -1.00529539092688
C           6.23909852735143   -6.99598861357653   -0.28952884904346
N           6.86564875711040   -7.76037730386653    0.29170838686393
C           6.18889005757098   -4.90271844195370   -1.43366941822614
N           6.77572465070647   -3.98170079791113   -1.78233797798325
C           3.48020018897147   -8.57560794304219   -0.23033881805311
C           2.29129242561993   -9.29451706144661   -0.18788824566428
S           0.96867822123812   -8.45087833868637   -0.96899442611731
C           2.10335309429954  -10.58478910219789    0.37886820469544
C           0.83893080930732  -11.21327073276321    0.39278839686054
C           0.61426953945765  -12.53146305329695    0.91677521631612
N          -0.63248165209944  -13.04433758116616    0.87396040734572
C          -1.59884586714419  -12.34821416603439    0.36987625505901
C          -1.37824334657474  -11.04382617774613   -0.14520576757483
N          -0.19690230953985  -10.51967216613877   -0.12425931315818
F          -2.36968181241651  -10.32610102338174   -0.66016877604684
F          -2.80918736992089  -12.89200035615101    0.34651243760684
C           1.67432177649062  -13.30255439068733    1.45520349070833
C           2.93762404571419  -12.66677217829376    1.45580902599372
C           3.15823292551926  -11.33915361574129    0.94030397384222
N           4.43702973445659  -10.97793630689976    1.05947746726752
S           5.27082296241091  -12.16301882789522    1.74023184937509
N           4.06376290903947  -13.20661553471676    1.92326904222350
C           1.54051591674131  -14.62844627356752    1.94626802032746
C           0.38871302306718  -15.39616897452835    2.08104557092123
C           0.66127684878305  -16.66700900628380    2.56670919258345
C           2.03673727811385  -16.88055768581583    2.80174438212677
S           2.98275346923578  -15.50667918531164    2.44758264630886
C           2.20645587929678  -18.20726247917883    3.26363565492621
C           0.94936574676630  -18.83228462772764    3.32722898495845
C          -0.06554942210713  -17.88260839594475    2.90052290882491
C          -1.41162291984387  -18.09180511865306    2.83815317911815
C          -1.98848344003831  -19.32635326305557    3.20368070120266
N          -2.45251853927468  -20.33092787986658    3.50498945707803
C          -2.32001882639297  -17.09544075671966    2.42018615929075
N          -3.07375035804201  -16.29725018493412    2.09112096452043
C           1.02367060336860  -20.15885621692241    3.75579535749774
C           2.32067885485788  -20.55487219338343    4.01299340354282
S           3.46992875960806  -19.25626777414049    3.72614555550785
C           2.78792633790563  -21.84757138105897    4.44435643448299
C           1.88823903148596  -22.83807647957561    4.87257280995177
C           2.31262210882441  -24.08712162047065    5.26670232781894
C           3.67278703564082  -24.38893485955014    5.23819226830739
C           4.57194690946278  -23.39146561462872    4.83136190551689
C           4.15489904458237  -22.14168914716622    4.43731659933713
S           6.21350180707812  -23.98829078882278    4.87425088127270
C           5.65370961661115  -25.54227283475593    5.45189760358276
C           6.47793132286852  -26.56548201949506    5.86295097653148
C           7.85842582549027  -26.68653727351195    5.68647007327750
C           8.74262128801457  -26.10001157257139    4.80638777748450
C           8.60622112567401  -25.41641968943839    3.55692220896332
C           7.53608873625638  -25.47270333661239    2.68744405127222
C           7.44568852292376  -24.75277384488870    1.48199586402594
N           7.28238077286286  -24.16717522373553    0.50726350410160
C           6.43378419132693  -26.32006582363250    2.87471322091826
N           5.51894091155977  -27.00451661879018    3.00721358120524
C           9.89436103676532  -24.78951112228761    3.24820634165124
C          10.84663966739652  -25.23234058633827    4.18235007108417
C          10.18581394483304  -26.12274360253865    5.16022964091394
O          10.69780713137092  -26.72510242032390    6.07872435048401
C          12.16576044431054  -24.83363446429958    4.11453049677952
C          12.53703426970308  -23.96435831665720    3.09646543549212
C          11.59997911042247  -23.51333521399313    2.17999775911600
C          10.27220892386856  -23.92051035077245    2.23964492493630
N           4.29305121551850  -25.56449141262966    5.56823488867636
C           3.59870173692388  -26.80557812698531    5.80191906186199
H           1.80644083493982    2.17107031008403   -5.16901559075483
H           4.21432042432614   -3.51079568959611   -2.72677165763892
H           4.38871106728178   -8.94953836730608    0.20407474623482
H          -0.58277965471573  -15.01828208199733    1.82439760974768
H           0.17278027810945  -20.80659429975496    3.85473875727480
H           0.83393480964501  -22.61777886082055    4.90411492104518
H           1.58877367026774  -24.81385748640247    5.59835329616615
H           4.87669733994427  -21.40719349469956    4.11646911215586
H           6.01533458890061  -27.33840274357246    6.46001393396803
H           8.35212867554470  -27.34023993859309    6.40078600071998
H          12.88000063033649  -25.19591814536993    4.83787129382670
H          13.56262835486155  -23.63611732297127    3.01804566807751
H          11.90432200156029  -22.83223093644306    1.39920257406065
H           9.56290083498638  -23.55282778131471    1.51583403103942
H           4.02588985732358  -27.57788839741886    5.15986432529816
H           2.54911067490046  -26.68516226092200    5.55041069489099
H           3.68288589264890  -27.10943903886226    6.84765383374340
