113
 SCF done       -203.553390925339          0.000167738458
C           4.93134021611222    3.73755854061022   -3.85948091526519
C           3.76748140257421    3.72417641763078   -4.59683018599413
C           3.71206923615299    3.83152689010560   -5.99771665267870
N           3.59012873013623    3.96877583637699   -7.13228052029382
C           2.49800187528681    3.54013287390986   -4.02878495070468
N           1.44401150798099    3.38088630809811   -3.59758332453941
C           6.27436370894541    3.58967024825432   -4.41553128280053
C           7.16825174478962    3.26696724541380   -3.35362030410566
C           8.49171249153396    3.02597040601958   -3.57774319761891
C           8.99397299796849    3.10687539451959   -4.89762929245512
C           8.10849524857715    3.44102629376186   -5.96148751615199
C           6.73837783936990    3.67898454016733   -5.69879649641722
C           8.62064635066787    3.51986612186019   -7.27174233992754
C           9.94404948580297    3.27725189988684   -7.52274888549490
C          10.81524245431037    2.94737984436678   -6.47476455199241
C          10.34995956434736    2.86424905446479   -5.19002739341602
C           6.41798354903757    3.25531633253312   -2.08287209303864
O           6.83205530016188    2.97874157588944   -0.97726974015077
C           5.04248119155612    3.69760071303881   -2.43079375803635
C           4.18927860473102    4.04387027226738   -1.41154810100771
C           2.99853994756468    4.78731327836627   -1.39788206553718
C           2.60877652376184    5.71327965952400   -2.35352878445275
C           1.31665855532793    6.32563965910741   -2.16252825265628
O           0.75986420800947    7.07586859659390   -3.11236647130744
C           1.46770205325851    7.18245449669730   -4.33022208877808
C           2.96435108647501    7.25146562576211   -4.06320744963773
O           3.39430472842024    6.08245145270259   -3.38026364240083
C           0.67966564140537    6.00892065887946   -0.97115657286423
Si          1.68259256434581    4.71085593797981   -0.06338915331219
C           0.83292319335432    3.04476518480909   -0.01549954671576
C           2.28551378358275    5.30212861137678    1.60888490028849
C          -0.56236934220702    6.52786996657251   -0.57516917465689
C          -1.28004014977836    7.65528234037477   -1.02422078488043
C          -2.54316853596646    7.81780501736256   -0.35625951580829
N          -3.36409813356656    8.82157731565893   -0.64081937238194
C          -2.96896770338073    9.67430913093990   -1.56790288219030
C          -3.87647787059641   10.79313107806166   -1.88847630711118
O          -4.95458779602067   10.94215610842201   -1.33910642066745
C          -3.38172856192226   11.72085432453552   -2.91461466286438
C          -2.20184394026403   11.58184356142521   -3.53262394848843
C          -1.26421995122825   10.48185408751012   -3.26217843606930
O          -0.21933965388872   10.35483315112405   -3.87584889126044
C          -1.70186452468663    9.53355273883491   -2.21560445543741
N          -0.87932387934303    8.54773434074363   -1.92533671992351
C          -2.80478682293738    6.83284066360714    0.61075495293106
S          -1.45435264147616    5.73746097050946    0.69830536263100
C          -3.98999159336302    6.71263364756522    1.33181993160864
C          -4.22295535305687    5.64813854486096    2.18496319570863
C          -5.51004428675345    5.61226904980678    2.81391333965582
O          -5.87338305955834    4.56534651230586    3.57537408809027
C          -4.78363816626591    3.80631384903816    4.06459623672032
C          -3.80174611522087    3.48827281206197    2.94207112387248
O          -3.29343479807777    4.68144114766225    2.37099956163081
C          -6.35882326952481    6.65371136620907    2.47327930714735
Si         -5.53519632769740    7.78353659029313    1.20337886680241
C          -5.35492038653790    9.52908338933382    1.84027622587402
C          -6.38946812468452    7.66796490913984   -0.45575096370695
C          -7.65697668265850    6.82998614333247    2.98768684108506
C          -8.13765270660668    6.49058343536649    4.22910275674602
C          -9.52481881118459    6.51235547083239    4.63098518900368
C         -10.61371841008996    6.66773686127367    3.80660608644720
C         -11.94990456297859    6.65332552803823    4.25239780451667
N         -13.05912641030192    6.65690933026922    4.55172763052092
C         -10.55764995278209    6.83614886530386    2.40887051610896
N         -10.60337572923435    6.95594370439266    1.26659922931193
C          -9.58207686989313    6.24418492235740    6.06462081400237
C          -8.25307255465901    6.06031991119392    6.54032793649114
C          -7.30523350325389    6.22423149614318    5.42078041978962
O          -6.09192039023210    6.22561752937376    5.50466003945016
C          -7.98878319310932    5.78201202940142    7.84915579502488
C          -9.06326187466293    5.66261204066066    8.76040486750971
C         -10.39520780378145    5.84845356974347    8.29284059036538
C         -10.63725679640086    6.14405097512048    6.93075832219206
C         -11.45928325520979    5.72918474193467    9.20918037873436
C         -11.22167213397698    5.43758909797838   10.52496730427218
C          -9.90947111445055    5.25402294190067   10.98440431464701
C          -8.85343555021258    5.36416185659503   10.12060982759299
H           9.15065355728298    2.77303493107179   -2.76032671169134
H           6.09113944171175    3.93222945206290   -6.52404266303977
H           7.94497545194543    3.77186639045219   -8.07612773847035
H          10.32592043611323    3.33759482384837   -8.53099331669757
H          11.85658454702026    2.75907429655816   -6.68969121942420
H          11.01666587094468    2.61027789385356   -4.37877086742309
H           4.52546365701228    3.70479415816284   -0.43549263466619
H           1.24055789954359    6.31418396840806   -4.96395615687410
H           1.10412910873771    8.09778062080451   -4.80161903347568
H           3.18858096206534    8.13408897167870   -3.45143616849716
H           3.53601812829569    7.28938483034073   -4.99130262466268
H           0.54854210617926    2.72121182773431   -1.01616632939291
H          -0.07118350126372    3.06496686454856    0.58996545485973
H           1.47919362700538    2.27237161055279    0.39756697532337
H           1.46279050696613    5.40053423273212    2.31447517981415
H           2.77810512244919    6.27178556577694    1.55427819511181
H           2.99829694417306    4.60823917092340    2.04960742716976
H          -4.04442858837698   12.54288086808234   -3.14965370718799
H          -1.87881356489038   12.28707804363328   -4.28671579905998
H          -4.28169978439994    4.37866373492639    4.85429157791696
H          -5.20961497950737    2.89438407955060    4.48500153587929
H          -4.30692330067323    2.90166551760390    2.16302876399609
H          -2.93966467552282    2.93381674286647    3.31576492258895
H          -4.63004101524789    9.61537583584483    2.64770338342117
H          -6.30141269550550    9.91256764116269    2.21677073161206
H          -5.04117958070246   10.19359243345120    1.03815084270885
H          -6.17901301598231    6.73850726715696   -0.98151416348752
H          -6.07406925821478    8.48725799658411   -1.09712365268539
H          -7.47087773939088    7.74038883683755   -0.35444893319691
H          -8.33157835112479    7.35640988847821    2.32295133429269
H          -6.97184132809086    5.64849859377820    8.18795888167585
H         -11.65680309614044    6.28561722390089    6.60921315409138
H         -12.46811448293169    5.87074034474730    8.84983583200533
H         -12.04405669112060    5.34663276785959   11.21880760462696
H          -9.73909222595421    5.02513750664596   12.02596294597360
H          -7.84042598380055    5.22426803177802   10.46950128607165
