155
 SCF done       -271.381298969382          0.000851718681
C         -12.80725391460228   12.31173619738253   -5.65855591044166
C         -13.86796979717045   12.97150926211157   -5.09569780490813
C         -14.97639411668726   13.44531787006772   -5.82879471982125
N         -15.90539270305542   13.85443035382975   -6.36520062812781
C         -13.99165238344412   13.32296329016884   -3.73421448578087
N         -14.16207530064565   13.67318900929520   -2.65353200048641
C         -12.63066744372945   12.06682954721401   -7.08418788162948
C         -11.31665686784887   11.56254232563889   -7.29047619607319
C         -10.85093742520064   11.24433510441098   -8.53339749717418
C         -11.70086361334197   11.41023576087843   -9.64952652425331
C         -13.02167888320731   11.90626471609142   -9.45103828451381
C         -13.47274266204228   12.23389644366630   -8.15158844420146
C         -13.86324693560498   12.06163111896860  -10.57132132648351
C         -13.42333762417052   11.74349843902602  -11.82737956063204
C         -12.12246085089454   11.25550898903129  -12.02153294706914
C         -11.27949722907181   11.09313788181651  -10.95584309202588
C         -10.61778731509536   11.45230432765137   -5.99774551562281
O          -9.45893380517664   11.12318504038578   -5.84964686760728
C         -11.62526132122350   11.81347034260770   -4.96824454939405
C         -11.58775451437458   11.59016336768474   -3.62097439732725
C         -10.55395477967372   11.10607818009840   -2.78705996468647
C          -9.21102839052183   10.90890083374227   -3.00464735351983
C          -8.52354772854792   10.41105112893712   -1.88215576769334
C          -9.38228011966275   10.20552034147509   -0.76748847203279
S         -11.01094298818292   10.69102909664050   -1.13440870853411
C          -8.95835024922229    9.63110113983079    0.42052873398567
C          -9.86853457711388    9.40677735079121    1.54800569885070
C          -9.93795629094705    8.16214036532263    2.17193279765064
C         -10.78705345362684    7.96193137928020    3.23977256111255
C         -11.58587422774025    8.99405554052648    3.72077933562803
C         -11.52422605507374   10.22960196864185    3.08968541935208
C         -10.68147516279292   10.43620194087917    2.01461270687129
C         -12.49552773856245    8.76026186293224    4.88626070550409
C          -7.60004666896520    9.26211955153358    0.48797251680178
C          -6.73671130714069    9.49070726937946   -0.62039488135107
C          -7.15638109852227   10.06782279107756   -1.80328755662597
C          -6.24726445829197   10.31831649663481   -2.92715546803269
C          -5.42064684253558    9.31047415039472   -3.41394269149542
C          -4.57445887256898    9.55240325238841   -4.47884941069010
C          -4.52235990936626   10.80296543280853   -5.08044464976404
C          -5.34093476819126   11.81137868614310   -4.58323840351626
C          -6.19402621084045   11.57597275416217   -3.52487225999117
C          -3.62481893519228   11.06247759167130   -6.25052611117658
S          -5.10106001389411    8.99134534523902   -0.26355743624981
C          -5.58438130878174    8.47808695461860    1.34286921574391
C          -6.91887013502954    8.69598642538341    1.58440561701328
C          -4.66107742306541    7.88578222898748    2.23196182418025
C          -4.94335175799574    7.27832363579861    3.46267656221413
C          -3.76901483676474    6.74432464215740    4.10749108041880
N          -3.85152452167351    6.14281611542160    5.29593482098074
C          -5.04559104929588    6.04281741874188    5.83969650703609
C          -5.12719672649342    5.38318772028715    7.16349513517920
O          -4.15229249843400    4.95901561161480    7.75166725764481
C          -6.48483853597380    5.27815183090695    7.72363991120100
C          -7.57895125964924    5.73743850923137    7.10728716338700
C          -7.55818146417872    6.40305479926245    5.79407082502743
O          -8.57320857626095    6.79827420882268    5.25566844913166
C          -6.21514125304917    6.54674964717604    5.18605876101771
N          -6.14923479378409    7.15549486718964    4.02123352952095
C          -2.59847173913693    6.94717291174248    3.36456135205028
S          -2.96402096414291    7.78998037506696    1.89553350255210
C          -1.28952405985625    6.54922396337454    3.71380948524212
C          -0.94019797831058    5.76475225709228    4.78592789281450
C           0.44824739702771    5.54708134125476    4.89012211339075
C           1.17257141469257    6.18959766182594    3.84697303399994
S           0.10080447053755    7.05252659763808    2.76984347121405
C           2.54261288653135    6.08984592176024    3.70076805423513
C           3.26824561166914    6.75344143865479    2.61194839613858
C           3.07270480847100    8.10697053549852    2.35369043665266
C           3.76903873201267    8.73429520429368    1.33871366873732
C           4.67088470948251    8.03106120063276    0.55095842836233
C           4.85288420886858    6.67530392835855    0.80247100964607
C           4.16594281804337    6.04252639679411    1.81778931614788
C           5.42164015903153    8.70376440385460   -0.55642117355945
C           3.22013091388343    5.30754563442266    4.66203278881459
C           2.49561612593817    4.65268384901922    5.69674056643778
C           1.12169195400614    4.75993993590811    5.84530008708005
C           0.39652303017745    4.10007481877741    6.93539993061793
C          -0.50632932174552    4.81342192769173    7.72247711710445
C          -1.19692580743084    4.18583486065240    8.73752502005416
C          -1.01439590919243    2.83114080344677    8.99454874983788
C          -0.10552271020810    2.12529429383533    8.21707594659073
C           0.59567753688753    2.74845551751553    7.20294438213230
C          -1.77814863747011    2.16463361278651   10.09566939421044
S           3.56450594713958    3.78272641757336    6.75553507373682
C           4.97249358200208    4.31156714394124    5.83107383423122
C           4.60827036228927    5.10843351327534    4.77068210895457
C           6.22483405535061    3.85766798711660    6.30226398862026
C           7.49900992410856    4.04091698551207    5.84044383167440
C           8.67484656442690    3.48603805557633    6.50058127286265
C           8.71198904574986    2.70826629060436    7.62930825129106
C           9.90056465722158    2.20855734001119    8.20424017295193
N          10.81978097030312    1.76808937826644    8.73297092093324
C           7.61456666902268    2.26751495318888    8.39982264420961
N           6.80123740217127    1.85087913233316    9.09655993989240
C           9.85231946207732    3.89804315712319    5.74404693403855
C           9.42438626560597    4.67508032671015    4.63310023193824
C           7.95680422588835    4.78861334423849    4.64294371092756
O           7.29564243509826    5.37772658377895    3.81129100542821
C          10.30462204908504    5.20460388634489    3.73424648950896
C          11.68735568624710    4.97740374148343    3.90998485450581
C          12.12693701471768    4.20064482630896    5.02020643522511
C          11.18950979204135    3.66510380084061    5.93301563692725
C          13.50910047121508    3.97896991872965    5.18817935889722
C          14.41422967054591    4.49870620949030    4.30346211839064
C          13.97986725146959    5.26366213483631    3.21057842784273
C          12.64544111894389    5.49789462737156    3.01808420515194
H          -9.84730529714978   10.86665336915597   -8.66207936400159
H         -14.47986613136807   12.60102705962058   -8.03387643307507
H         -14.86344183065353   12.43918595217713  -10.41711116936480
H         -14.07572736594265   11.86617778188976  -12.67892051417360
H         -11.79202384820107   11.00834656276805  -13.01941286846018
H         -10.27672111438184   10.71740302954045  -11.09864417449071
H         -12.51215876269982   11.76860704506520   -3.08255094635319
H          -8.74183210962416   11.09353511441796   -3.95292507961290
H          -9.33756504767925    7.34414407070766    1.80280795780318
H         -10.81841200304546    6.99623741742493    3.71967981704627
H         -12.13719995306844   11.04478804035914    3.44685104519455
H         -10.62931727238641   11.41183089030402    1.55377083591540
H         -11.97141029166102    8.21604564883800    5.66924400693668
H         -13.35228431898563    8.16023232596224    4.57836929676192
H         -12.86368669961704    9.69968357778438    5.29127392100746
H          -5.46094833745843    8.32527408243817   -2.97320668045019
H          -3.94734250431676    8.75468789914865   -4.85051966939767
H          -5.30881329319256   12.79286321021240   -5.03414038430547
H          -6.80874109779303   12.37614864355269   -3.13908488694444
H          -2.85168599354839   10.30187389809386   -6.32613480616391
H          -3.15332019449151   12.03961014688063   -6.16642261846835
H          -4.20644554466903   11.05142883617697   -7.17280436603207
H          -7.37274155271894    8.45737724665421    2.52880018576567
H          -6.54573325755507    4.79434616803096    8.68934967201941
H          -8.55881544545145    5.63852624845637    7.55503157589163
H          -1.67451378915696    5.35585360129797    5.45563691526124
H           2.39368816579916    8.67706979149030    2.97060192411277
H           3.61319651933213    9.78878423124957    1.16106813467809
H           5.54641349163805    6.11044168273159    0.19658523251186
H           4.30876627121398    4.98566169968755    1.98726135419568
H           5.38009621926620    9.78543605090342   -0.45543911362725
H           4.98825096185724    8.43344294701525   -1.51981227728810
H           6.46324586048167    8.38872728289354   -0.55981816303886
H          -0.64966105947658    5.86935542111992    7.54812392720373
H          -1.90129845195387    4.74971861095553    9.32894814209118
H           0.05197828950892    1.07208059890647    8.40088785824349
H           1.27844992788856    2.17568974839419    6.59245457423838
H          -2.81955386290684    2.47890693810286   10.07501953186318
H          -1.36244814776464    2.44672286432616   11.06336271165739
H          -1.73100902528801    1.08212445694944   10.00632714425645
H           5.32574146385357    5.54705680194821    4.10234521089498
H           6.13105214292967    3.25444510526179    7.19766603006855
H           9.94806706282768    5.79091861770854    2.90023457573420
H          11.55934904759635    3.08275827047687    6.76124661528773
H          13.83867148152765    3.38942693656819    6.03113249084043
H          15.47071033094830    4.32329689074614    4.44087954107165
H          14.70799326548631    5.66632386780164    2.52229795030938
H          12.30463057503335    6.08633548423871    2.17862177545732
