106
 SCF done       -190.883210317197          0.000633467306
C          -4.21682473948817    0.73750248454878    1.16331619487447
C          -4.27665619523380    0.81907831673576    2.52939381840020
C          -4.99876916227272   -0.08314232487182    3.33872151290089
N          -5.56920926267871   -0.77966619456207    4.05121380589136
C          -3.59451314782534    1.76333713329806    3.32644705451925
N          -3.05788748964743    2.47567087162326    4.04998406693313
C          -4.82218895859315   -0.31254923407713    0.35457608470729
C          -4.34920074141519   -0.17678388528251   -0.98036490593191
C          -4.73717496899127   -1.02795286491480   -1.97432323438214
C          -5.64563688370098   -2.06747392088818   -1.67419271717777
C          -6.13450204025065   -2.20234038022773   -0.34274012888695
C          -5.70606117800457   -1.31101064701725    0.66772588258856
C          -7.04952832090386   -3.23617515637754   -0.05742693736845
C          -7.46176614132658   -4.09696482135764   -1.03790533022072
C          -6.97781709115296   -3.96470330861464   -2.34799807815690
C          -6.08862429879665   -2.97206619747419   -2.65906525180339
C          -3.44109538088240    0.98080929193511   -1.06994972584844
O          -2.81936195815594    1.31713335344724   -2.05615838367528
C          -3.47722275241253    1.61885990141955    0.27029236802725
C          -3.07960458479882    2.87678801483145    0.62242898138330
C          -2.39407875122268    3.87192396539078   -0.11270672695479
C          -1.68637159853513    3.83373057714489   -1.28918054639175
C          -1.16545720231972    5.08476258968509   -1.67740739079194
C          -1.48942831597251    6.11846912830271   -0.75190156184150
S          -2.40349870268438    5.49572571619910    0.58682791581029
C          -1.11722913832473    7.42853532150801   -0.95153345735594
C          -0.39943393380506    7.73136863556881   -2.10939212987387
C          -0.05717718620867    6.70017712459549   -3.02657878588765
C          -0.42492921639252    5.39163626799243   -2.82349296629941
S           0.83824315752129    7.33019650108159   -4.39024998709378
C           0.71409758073432    8.95433397341295   -3.75391144285719
C           0.05380421390199    8.99354199779643   -2.55535141834305
C           1.23419729038512   10.07066292616476   -4.49667566770996
C           1.07539221252525   11.38818542753704   -4.09613120245561
C           1.52723043829499   12.44214492023113   -4.87712436970632
C           2.16591121294665   12.26203031765496   -6.09666471305723
C           2.39339522067711   10.91902091433518   -6.52039281067026
C           1.91881320432263    9.84581032412950   -5.72222497803891
N           2.10523605149088    8.57794027091282   -6.11919422679366
C           2.73604573318587    8.32338551816312   -7.23374484257887
C           3.23380596964501    9.39891040715494   -8.02470215306729
N           3.05126896389069   10.64211330454076   -7.66263420301209
C           3.98155975736653    9.14962718321594   -9.29135299515755
C           2.91259228515788    6.89718592686469   -7.62491579232417
C           2.53896132850523   13.40119103270889   -6.89518920008780
C           3.09824212460545   13.43321586513098   -8.13989225585764
C           3.27377706475149   14.73738248986393   -8.66025997730939
C           2.82601089696685   15.73821778970045   -7.75297468082158
S           2.21471898485489   15.02476465937770   -6.28893938422247
C           2.87128329628181   17.07892459356682   -8.04875499006091
C           3.37142580672952   17.45527468422834   -9.29973468021505
C           3.82693992272393   16.45498410089494  -10.20575618191736
C           3.78742155964510   15.11203616241564   -9.90138337291485
S           4.39145699491689   17.16370885312124  -11.68603868488616
C           3.99178896166948   18.78644214374512  -11.10773681360842
C           3.48066092067582   18.75515080541124   -9.83328405884577
C           4.25910257817678   19.84387694000748  -12.00886608834831
C           3.94229408168691   21.17146130361354  -11.96530438078905
C           4.29362816537966   22.10968661025251  -13.02430258076069
C           5.22019454965287   21.92433543183208  -14.01652387553262
C           5.51772979744990   22.88707129772551  -15.00473379388770
N           5.80423358274671   23.61840638625198  -15.84206923184439
C           6.04372956973955   20.79057408795557  -14.18624352878435
N           6.76885331627329   19.92347504807110  -14.38962620740676
C           3.53456573601322   23.33494389779057  -12.80764243354335
C           2.82591590668670   23.21189969022257  -11.58039769470989
C           3.09266024229543   21.89231202957809  -10.98326599799882
O           2.67814036231443   21.50831093413215   -9.90906189765964
C           2.03173534080622   24.21255755820208  -11.09939247882851
C           1.89965727293110   25.40462157745151  -11.84552849379007
C           2.59656148929888   25.53230748052082  -13.08168983273977
C           3.41692871885711   24.48043638467699  -13.55006013505632
C           2.45189919473923   26.72334003002360  -13.82208310862691
C           1.65928451190223   27.74044605320892  -13.36440923865401
C           0.97494820680184   27.61410548909812  -12.14623650808740
C           1.09281264801305   26.47118488052887  -11.40288988087383
H          -4.35972101558733   -0.90605714186387   -2.97883777498101
H          -6.09805746082898   -1.43583572135566    1.66459965825424
H          -7.41793867441616   -3.33502175118967    0.95314843152069
H          -8.16353077252075   -4.88508103075838   -0.80931023145368
H          -7.31366677760202   -4.65272379388910   -3.10949637369366
H          -5.71290092718454   -2.86476439575074   -3.66623599066298
H          -3.37640661450366    3.21213037446720    1.61031920149131
H          -1.55239285877529    2.93500933573971   -1.86192650089731
H          -1.37692223216304    8.20049591597494   -0.24450028925425
H          -0.16866580255525    4.61772190579387   -3.52923264644405
H          -0.11973146657215    9.89553209945022   -1.99658025517224
H           0.57377448245377   11.61288499927650   -3.16846332853179
H           1.35834761242315   13.45035710178572   -4.52686354636417
H           4.86151599646802    8.53856919095895   -9.09679113044060
H           4.29161690638689   10.09507319703538   -9.72665460123915
H           3.35299108081610    8.61565622323000  -10.00255592623924
H           2.44098734005390    6.26284307811109   -6.88034451736783
H           3.97138270742441    6.65134055276567   -7.69242308209858
H           2.46219931026088    6.71203225845474   -8.59881856316607
H           3.36481819632802   12.53788576404672   -8.66885840083760
H           2.52365662598400   17.82567465964617   -7.35308227152725
H           4.13288712104012   14.36722086297461  -10.60034531775183
H           3.18394531375526   19.64010547269770   -9.30130763336718
H           4.77501612340879   19.50857419458429  -12.90173195890984
H           1.50847647671254   24.09403549378550  -10.16208917964175
H           3.92696101492810   24.60741974116998  -14.49156424715718
H           2.98202972906309   26.81661744131869  -14.75857146831410
H           1.55528422418842   28.64879127707578  -13.93876758767597
H           0.35376751040726   28.42669034257640  -11.80011016545325
H           0.56815974588197   26.36780638963401  -10.46424125773766
