123
 SCF done       -217.677249071437          0.000758797992
C          -1.69328618594305   12.92591905362814   -4.77100828322497
C          -1.25365702343579   12.12546905609735   -5.79101944169149
C          -2.08360957728279   11.65529082521740   -6.82861332598328
N          -2.72771513034011   11.22436570689734   -7.67546692475042
C           0.09173027018644   11.73709928498174   -5.96371542177097
N           1.17622564963328   11.43945546509673   -6.19207336949979
C          -3.00310629444089   13.56407710853301   -4.69977257941236
C          -2.92157947555645   14.66754836127323   -3.80037606261939
C          -3.99381913138252   15.47755119890735   -3.56030900477537
C          -5.21986890642092   15.20930385377627   -4.20954963099995
C          -5.31210991479018   14.09862130776688   -5.09746742188608
C          -4.18306629126166   13.28156270735670   -5.33423570849972
C          -6.54350042313835   13.83725100720766   -5.73222859302378
C          -7.63184272391516   14.63427517430480   -5.50412336754236
C          -7.53993739546071   15.72813947826883   -4.63044320229691
C          -6.35972593808982   16.00987538591456   -3.99785069166823
C          -1.56685730551644   14.72650520355830   -3.22171340116283
O          -1.11202426004579   15.55563364498599   -2.46769624145946
C          -0.87971017792078   13.49571539830831   -3.71136637023229
C           0.23492718582011   13.05719040028601   -3.08010692021625
C           0.84181490516822   11.75272685910291   -3.12685111357627
C           2.21896033004020   11.62873092563920   -2.90081022765769
C           2.84537274306974   10.40051232090656   -2.94689529250883
C           2.08092404241835    9.26853420673995   -3.19308778102128
C           0.69107378747161    9.37547534852872   -3.38305353373766
C           0.07378151545086   10.59874135992494   -3.34944108513864
C           0.07804958399809    8.01857769152379   -3.63946644005241
C          -0.97587579649677    7.66191843860205   -2.58794099608065
C          -0.52118440761178    7.95917993537428   -5.04956070190148
C           1.28908360174154    7.12013605432266   -3.53681542889148
C           1.34881875706895    5.75361195426591   -3.65398822642124
C           2.58294824833080    5.10662624134201   -3.51692541916736
C           3.73250745664538    5.86220899658893   -3.26116583602662
C           3.67607060913200    7.23694770028775   -3.14886447594651
C           2.44883133773026    7.87125598522109   -3.28320701308232
C           2.66493762529562    3.65437831889924   -3.61832290531937
C           1.89846302855414    2.91489858062747   -4.53292431700663
C           1.92472941297215    1.47393600537855   -4.57290946902096
N           1.18849758492683    0.82708767170930   -5.51172311491868
C           0.46881863277810    1.50835568657858   -6.33339475046476
C           0.43284413041788    2.93084706394366   -6.28482290134059
N           1.12681899060083    3.58878098412635   -5.42326211456067
F          -0.31795872178245    3.62397623191145   -7.14073318097521
F          -0.23899741559827    0.83735563407345   -7.24290297706380
C           2.70712484669129    0.71136703638406   -3.68918461337291
C           3.52169191433333    1.45087233077338   -2.81301163964562
C           3.50352822629579    2.89876854312032   -2.78135577299560
N           4.32370641191903    3.37926364049115   -1.83865389529115
S           5.03164934784157    2.15836951061573   -1.08714972624931
N           4.35375872318016    0.95315284127594   -1.88974953108292
C           2.65937633351872   -0.74497401345484   -3.65105296512848
C           3.81183176500338   -1.48530911833653   -3.36120790516579
C           3.78103013823122   -2.86337807336937   -3.28910061929807
C           2.57850043193061   -3.52098777200064   -3.50967668085489
C           1.41930420311232   -2.78760078349582   -3.81320299869810
C           1.45118712219124   -1.41691536891429   -3.87738222136004
C           0.24044391778417   -3.70870252979513   -4.02751811430777
C          -0.89007723795826   -3.41442150303517   -3.03779830633988
C          -0.26632818159804   -3.60701531521598   -5.47032036419137
C           0.86519982115839   -5.05979096375142   -3.76339389216942
C           0.27541929881696   -6.29703725169196   -3.78025158916038
C           1.03665892960626   -7.43110714566594   -3.44592152005064
C           2.40596413900283   -7.28925373936590   -3.18491892790796
C           3.00940724014492   -6.04839449694928   -3.20388497088321
C           2.23556882935365   -4.92690717660656   -3.46952620650657
C           0.37028062716924   -8.70656383299626   -3.42496876742849
C           0.59179073459997   -9.75088420224313   -2.58530274906823
C          -0.09872969673393  -11.03159912377308   -2.64482388920026
C          -0.76851341910643  -11.54071147015722   -3.72542080104281
C          -1.39967491148195  -12.80223787013721   -3.73923228542950
N          -1.93614629692919  -13.81473289733873   -3.80994529911121
C          -0.89579817417432  -10.90120444381202   -4.97685957718834
N          -1.02932890351274  -10.45552373249823   -6.02663049696681
C           0.11601348965105  -11.71651991305085   -1.37786032180179
C           0.98939039462882  -10.92549530412754   -0.57968865834920
C           1.35945578357287   -9.69797699299143   -1.30851923472007
O           2.08486517444199   -8.81764042609790   -0.90166943189028
C           1.37382377514703  -11.31373444080700    0.67120255785319
C           0.89128751181126  -12.53495446390631    1.19209921538835
C           0.01071139983017  -13.32948155795704    0.40248353463175
C          -0.36897181264135  -12.90169923994617   -0.88999370116394
C          -0.47086078117442  -14.54266950708987    0.93569236799028
C          -0.10085573570520  -14.95321601305811    2.18724620360108
C           0.76710901020514  -14.17053173095638    2.96334785104750
C           1.25335611787900  -12.98791152616116    2.47598120338467
H          -3.90901616610414   16.31283760096353   -2.88116204036768
H          -4.28227469472763   12.44231943312673   -6.00509636592598
H          -6.60835130216668   12.99588862434599   -6.40652022817477
H          -8.57019066021090   14.42656150860562   -5.99619143656177
H          -8.40897467673433   16.34623253232385   -4.46134007969830
H          -6.28291269987866   16.85091911566844   -3.32432415422964
H           0.69103160653239   13.77472558943850   -2.40434103928184
H           2.79787299479729   12.52275686634013   -2.72179552356904
H           3.91080003999919   10.32338107696159   -2.79276439337516
H          -0.99805240503820   10.68023137333933   -3.46006303572606
H          -1.80323925964101    8.36669649798082   -2.62632539439850
H          -0.54041049807003    7.69037089499323   -1.59111476289447
H          -1.36401555190907    6.66301206249290   -2.77012007248874
H          -1.39360728497726    8.60515056360984   -5.12059833545618
H          -0.81987595832820    6.94217597161950   -5.28975950938319
H           0.21223755331872    8.28736669178419   -5.78273878279592
H           0.45699368551999    5.17400130521975   -3.82750877220284
H           4.67940904227980    5.35563228049451   -3.16472928571794
H           4.57371433027045    7.80617457131379   -2.96065009064711
H           4.74105522817360   -0.96301714416622   -3.20046139658218
H           4.67960008310262   -3.41789693121003   -3.06463256040685
H           0.55465024035523   -0.85417132342216   -4.07814222714023
H          -1.27923991053339   -2.41231862048541   -3.19942057996474
H          -0.52492217102154   -3.48622513373178   -2.01538354581471
H          -1.70135495449828   -4.12642083135139   -3.16824336359310
H          -0.62149648612821   -2.60006284196907   -5.67373592805029
H          -1.08153072672975   -4.30717297864916   -5.63560169641199
H           0.53623220907829   -3.83658178288636   -6.16762076693155
H          -0.77480208075331   -6.41156216762139   -4.00760457015067
H           3.00070702803643   -8.16761646131176   -2.99650494024827
H           4.06629877367068   -5.95409192530886   -3.00698418385826
H          -0.44497632497041   -8.79958653904126   -4.13430327271273
H           2.03838377777897  -10.69522874516607    1.25616752838972
H          -1.04349294106659  -13.52079856191774   -1.45995724988963
H          -1.13790943719872  -15.14228984450818    0.33381890294198
H          -0.47540601215282  -15.88372386076662    2.58685158452511
H           1.04812655914336  -14.50942773554888    3.94934082725957
H           1.92197160585952  -12.38089091098210    3.06880075222180
