111
 SCF done       -208.929380017312          0.000862771664
C           2.71374515933213    2.99131962250345   -4.90102987554188
C           3.65435522953491    3.71461847414432   -4.21237223137653
C           4.62976789840336    4.51879865426037   -4.83106324597324
N           5.42922804371138    5.20038613487470   -5.29484257908695
C           3.80477969527368    3.62015294254484   -2.81427232557639
N           3.98536536506184    3.50942110010375   -1.68590059313061
C           2.70633703915127    2.76017614652678   -6.34248323283580
C           1.95645550122131    1.57529223327376   -6.60059210958007
C           1.79998456894119    1.08761924572651   -7.86507891653550
C           2.38383014019995    1.78289976234048   -8.94866246762439
C           3.12297080717356    2.97472354622587   -8.69814858561070
C           3.27916467799146    3.45052834995288   -7.37484292121220
C           3.69070168688520    3.66204358307954   -9.78978352725896
C           3.53831899723972    3.19628231223836  -11.06749345353469
C           2.81071232131417    2.02260559305059  -11.31293898890221
C           2.24685241504647    1.33057606609231  -10.27565616861357
C           1.40872077969636    1.05947761306840   -5.33135130438777
O           0.76862389978493    0.04737140392206   -5.15074299757551
C           1.74348307885645    2.09619076849538   -4.31856942572209
C           1.01717394530731    2.13438246896638   -3.16340313572744
C           0.73158781819015    3.19337308577159   -2.28253199858437
C          -0.08912457752304    3.07772303849627   -1.16117531442063
C          -0.37426975795218    4.28114374242676   -0.54544669931177
C           0.23316049886723    5.35827819689270   -1.19850138209021
S           1.15527338190904    4.86978478834306   -2.56199457913228
C          -0.03885621453436    6.65736146545049   -0.71709059460679
C          -0.94888105665117    6.77262437943778    0.33594546451149
Ge         -1.47338096174756    4.97253626874485    0.93933280439679
C          -3.40666537534303    4.58105179773897    0.74051980375307
C          -0.73876179112391    4.52032172225401    2.72463482763713
C          -1.21027395964202    8.09569321121393    0.65468739216266
C          -0.49166242677272    8.99838485504989   -0.11351274971016
S           0.54969618734120    8.18572838357288   -1.25069417718511
C          -0.53053166483554   10.42486479128414   -0.07151210754789
C          -1.66580397562501   11.15285968811369    0.34553547330993
C          -1.69464365307171   12.59244129589805    0.34348204349112
N          -2.81657472815376   13.23025523714617    0.74541287402081
C          -3.84640067261494   12.53938472491692    1.10533647066787
C          -3.82723567584513   11.12216610324415    1.08100181745685
N          -2.77298242380260   10.47151047303026    0.71701581102137
F          -4.89907155311284   10.41183926568605    1.43814865249771
F          -4.93288748896674   13.20755012525513    1.49766147368434
C          -0.57165480910399   13.36599424416160   -0.02371977371182
C           0.57508610186514   12.63759420813397   -0.40108332505014
C           0.57965302566524   11.19811595036185   -0.46821801954342
N           1.75260651567974   10.72804035417869   -0.89595641059403
S           2.74010924768202   11.95944985537485   -1.18089040419762
N           1.74492403425523   13.15256596471908   -0.78327576151695
C          -0.57378096355542   14.79319967134463   -0.00954011728306
C          -1.65066642355002   15.64898282995813   -0.18527195706950
C          -1.30879907983527   16.98782176021657   -0.09022161902696
C           0.04687771717091   17.16580551445402    0.19874808927295
S           0.90519357908410   15.67333825863581    0.26536478937550
C           0.50172114933248   18.48330837506943    0.43001197505975
C          -0.44078709801109   19.51483800080488    0.28011338764599
Ge         -2.17789752076175   18.74777926084753   -0.24615950000574
C          -2.68764168019158   19.17648468776027   -2.11498022118601
C          -3.63008434313067   19.05324743908270    1.06764534911278
C           0.10098239941500   20.73880027872347    0.59402546811023
C           1.43632780293083   20.68020736460123    1.02057510654074
S           2.03115183824788   19.03351610638608    0.98269546791319
C           2.12260526099457   21.82345452634476    1.44791296339661
C           3.35692008873639   21.95581332279932    2.03453640499546
C           3.93476356624604   23.19454520956164    2.51376131122143
C           3.46707003921415   24.46837879537441    2.30529499385268
C           4.09090400210228   25.63049250071841    2.80338566182174
N           4.54003796409129   26.61957796333757    3.17616420257979
C           2.32179552714332   24.81301060512559    1.55957375686472
N           1.40701317502375   25.17465731642847    0.96502148824207
C           5.14414674538385   22.85532266721855    3.25854029857375
C           5.34467400125345   21.44742024412949    3.17967107834964
C           4.25822161724358   20.85122885773790    2.38513490758501
O           4.13628881682986   19.67420512304043    2.09171851008518
C           6.39557079740272   20.83093246386304    3.79341350679160
C           7.31056686630648   21.60971355664231    4.53810463215711
C           7.11619327412504   23.01786862470656    4.62528335672499
C           6.02045561935764   23.62855911498715    3.97143102844960
C           8.02959925425470   23.78410873907440    5.37678039256850
C           9.08494415056495   23.18958531061455    6.01379898110980
C           9.27551721943518   21.80286354722085    5.92727504046425
C           8.40755870198880   21.02983958199499    5.20424993373295
H           1.23495246575190    0.18397680704519   -8.03954206530207
H           3.83654803802005    4.35990064655893   -7.21069271236428
H           4.25243562223039    4.56410577452805   -9.59598520284763
H           3.97816058861249    3.73013766914624  -11.89667028970891
H           2.69879093845565    1.66962250423593  -12.32730939529972
H           1.68508098096044    0.42597876110086  -10.45802207876711
H           0.45513574906932    1.22566664039416   -2.96346682286612
H          -0.46092604749314    2.12488977083721   -0.82587399643769
H          -3.74315848613696    4.83907733904962   -0.25859008780050
H          -3.97676550842459    5.16040006953861    1.46022895988162
H          -3.59904394305074    3.52670902070533    0.91440725119040
H           0.32248866431182    4.74588979104195    2.75995880828359
H          -0.87795296664697    3.46377367237745    2.93237374799548
H          -1.24496368109880    5.09457616891588    3.49457103649918
H          -1.89187978444337    8.41126128025536    1.42216888820305
H          -2.64287630243618   15.28927283662818   -0.38393866711762
H          -1.85693773345434   18.97945653294983   -2.78545314103173
H          -2.96186335017322   20.22362277039671   -2.19819802954525
H          -3.53526718938371   18.57123318306442   -2.42126042754066
H          -3.28598948204395   18.82236372520167    2.07075916148904
H          -4.47888646031192   18.41726242682425    0.83572655279633
H          -3.95427643484626   20.08895968563718    1.03761369430409
H          -0.43605592672895   21.67089876181632    0.54589424197668
H           1.54229733346882   22.73084400446899    1.32875604368448
H           6.52472699281413   19.76136320577473    3.71816872901259
H           5.89993677310368   24.69639838422470    4.06082090793811
H           7.87839084271771   24.85180241188518    5.44024133701131
H           9.77834467538993   23.78533857411438    6.58840269965514
H          10.11290344122204   21.34965845186811    6.43660936051231
H           8.54915083156236   19.96112826984706    5.13443930174145
