94
 SCF done       -186.246565143930          0.000823113798
C           4.06051690464412    4.27760392653953   -3.30853925201482
C           4.46786935882456    5.56409421244312   -3.07304911246263
C           5.07233717430056    6.38431293885928   -4.04646838832845
N           5.55366908624174    7.09442340688170   -4.80891704495671
C           4.41470637326616    6.16841762095883   -1.79973735824935
N           4.43255404068618    6.66731163456427   -0.76591207625910
C           4.37018813089251    3.49687424827607   -4.49987569927540
C           4.28392425083120    2.11259744010754   -4.16704268327275
C           4.57777996434138    1.13873680074512   -5.07759526362161
C           4.96740877919827    1.51106480559366   -6.38403676842691
C           5.03540086852052    2.89261170497046   -6.72738907513043
C           4.73110900333510    3.88050608387532   -5.76293617763371
C           5.42047911193704    3.24926158781699   -8.03569665193668
C           5.73039925813723    2.28960355764558   -8.96045062828940
C           5.66611435936620    0.92989906174840   -8.62098650908210
C           5.29212799489588    0.54904152188776   -7.36086119087322
C           3.84497926541755    1.97191441996112   -2.76697922305562
O           3.71015636220635    0.95879439408995   -2.12092951951530
C           3.53089040639068    3.36061452727349   -2.31889173473338
C           2.77550203704698    3.55759547364235   -1.20868145725708
C           2.03322158520941    4.70600379282032   -0.82895266829179
C           1.61627468145250    5.01481442196287    0.45036492640064
C           0.87597201338587    6.19427923377462    0.49270344665434
C           0.67579746255931    6.77500329723661   -0.76813254168823
S           1.43704245450732    5.86459007802188   -2.01250668941562
C          -0.08237617886756    7.94465928367955   -0.69714473221084
C          -0.44925458492249    8.26012902109662    0.62024310601231
S           0.13376443075058    7.10147420010318    1.77860051531313
C          -1.19868417190415    9.43034090639200    0.73174624009740
C          -1.41323106186569   10.01337712981589   -0.50062787925876
S          -0.67867114405593    9.10913374935705   -1.81583357049944
C          -2.12961735810526   11.20718075576372   -0.76983633340042
C          -2.73727641539625   12.08890438302069    0.09653919603039
C          -2.94760758164848   12.24444734346598    1.54310806683293
O          -2.60539999388060   11.54758918974430    2.46888965375633
N          -3.67216162843132   13.42380013026142    1.67643268550808
C          -4.09242695859463   13.95104343747217    2.95101177365898
C          -3.95987397210456   14.04780739395743    0.46962553727753
O          -4.57912757214508   15.07854365055588    0.35104738867158
C          -3.35757028328420   13.18619200168273   -0.54886411424265
C          -3.25636728199902   13.18299899239194   -1.91885984126176
S          -2.34933763323565   11.76642769811681   -2.41971536777071
C          -3.76240230748229   14.11024962315801   -2.86237599733859
C          -3.65602403727005   14.02067258247091   -4.23792075650216
C          -4.26872223218380   15.09729822312495   -4.87115214002083
C          -4.83996971024315   16.01584787430674   -3.97657709047789
S          -4.62736331037963   15.54118581640335   -2.33289269915288
C          -5.44654563038128   17.08485479365849   -4.64252656201343
C          -5.34309757309580   16.97303219926486   -6.04088983518593
S          -4.48027868332125   15.54337441766862   -6.54040349710156
C          -5.94284048883715   18.01224051233921   -6.73980408244599
C          -6.51815843961444   18.94242156526802   -5.88965048811811
S          -6.28749859537575   18.50905847524833   -4.19033092263503
C          -7.21042268170900   20.14889217263575   -6.12499342601385
C          -7.69207744807689   20.70329284680462   -7.27766543949897
C          -8.39188021632470   21.97993619392469   -7.31616555987477
C          -8.36289771487673   22.96137200125683   -6.36031223105783
C          -9.04742362106408   24.18996685237487   -6.47517196614297
N          -9.58181483905132   25.20568134342216   -6.50311804187929
C          -7.61558383474182   22.92498486687402   -5.16361842671405
N          -7.02123204044721   22.98696059352636   -4.18263290972112
C          -9.06530807207586   22.08245711723668   -8.60440377248448
C          -8.68062539263839   20.96728254997149   -9.39982695751815
C          -7.76885499243376   20.10154842273937   -8.63273871635177
O          -7.22152441767223   19.10278495078831   -9.05286251504021
C          -9.14148788766667   20.79391050626076  -10.67296174285808
C         -10.03705567317121   21.74232947433676  -11.21523068948940
C         -10.43934470409415   22.85409232506671  -10.42012620006178
C          -9.93752182551889   23.01094176296520   -9.10761954624657
C         -11.34168372611903   23.78855791255006  -10.96771969291484
C         -11.82200272745007   23.63577733501052  -12.23990657144752
C         -11.42246263272634   22.54258688293033  -13.02298185668218
C         -10.54899500614371   21.61608719946025  -12.52151940803551
H           4.51684815243113    0.09565323380960   -4.80468897343092
H           4.78190346858007    4.91980713139890   -6.04843699516620
H           5.47215598971975    4.29752642208570   -8.29075779391049
H           6.02823876694993    2.57305974795523   -9.95881336435022
H           5.91446207776979    0.18584652112113   -9.36294724421375
H           5.24073867959994   -0.49643246365391   -7.09415228025644
H           2.66652095166486    2.69432023245471   -0.55861358220251
H           1.87686768875770    4.42659340184887    1.31075983508440
H          -1.56899700773155    9.84506274918225    1.65198544036694
H          -3.75723446018920   13.26117576408930    3.72322689448186
H          -5.17870541099887   14.04353583865171    2.97565994505656
H          -3.65173034274524   14.93560103468295    3.11175029304978
H          -3.15936959920385   13.20981760907432   -4.73903893703235
H          -5.97407379567410   18.09795750746541   -7.81006931475590
H          -7.41413265805015   20.69784604736454   -5.21212147974161
H          -8.82914709654340   19.94119679336541  -11.25742681420738
H         -10.26528907970946   23.86033707227896   -8.52962808567804
H         -11.64455024998854   24.62979135380519  -10.36181414258801
H         -12.51274826691632   24.35710173068636  -12.65016697983446
H         -11.81161082400400   22.43737659803561  -14.02458157760991
H         -10.23883805955125   20.77139682258335  -13.11892808570691
