97
 SCF done       -197.514787022326          0.000459726928
C           0.43992123997468    1.60364579892107    3.42197440076582
C          -0.79068443839891    1.51006880009522    2.82351453074459
C          -1.26835185520572    0.34373476112478    2.19248960283670
N          -1.69607237730527   -0.57314618053148    1.65012754689844
C          -1.74777092074570    2.54325157830052    2.84471247130846
N          -2.56421137684305    3.34998824777769    2.86539744263080
C           1.34672143347233    0.48347773958778    3.65660870533787
C           2.24372412162867    0.83982351653142    4.70586874001603
C           3.18517220625047   -0.03122779803033    5.17248128561334
C           3.28386249567731   -1.31537418507865    4.59085592485299
C           2.40415522479352   -1.67037085963138    3.52754808363547
C           1.43121280910768   -0.75078590126511    3.07146522537539
C           2.52104912912131   -2.95028054755561    2.94886466576350
C           3.45807596564592   -3.83974770956116    3.39990040468295
C           4.32153303584129   -3.49048594846751    4.44882950823588
C           4.23599726365287   -2.25529354628431    5.03183002488057
C           1.97622508199575    2.22638742028039    5.12377885929070
O           2.49655161259562    2.85401387973608    6.01660763779528
C           0.95284239531083    2.73504976446895    4.16179800221285
C           0.76120800310378    4.08051002739661    4.07828929045940
C           0.18004580575507    4.85930186955846    3.05340951601308
C          -0.08036981809819    4.54164811627180    1.72853444888985
C          -0.60087252158979    5.61991325825287    1.02707277294476
C          -0.74426059944326    6.78559182530890    1.80325529409588
S          -0.20808134818848    6.53517958618266    3.41483587728434
C          -1.26885055283816    7.84982266736647    1.07266812990963
C          -1.53235966394148    7.49340354158462   -0.26124966610505
S          -1.12636765323010    5.83567758557333   -0.61805123116901
C          -2.03966314339837    8.53521422408745   -1.02391787931929
C          -2.15983437570934    9.70453934372723   -0.28591841837711
S          -1.64671008910958    9.50748174337589    1.37935033751800
C          -2.60308519991464   10.96857775162055   -0.75496114183682
C          -2.59901414652806   12.09663753494931    0.09598106048043
C          -2.96484809779039   13.41057932844749   -0.36166934838363
N          -2.91519828416195   14.44160191772305    0.48876228967054
C          -2.54404347378355   14.25332336408919    1.73087527735040
C          -2.18796061724327   12.94240253484198    2.18911219275238
N          -2.22437267629289   11.92244797260123    1.36774113395832
C          -1.79560184478464   12.73679970892862    3.53513778688833
N          -1.48120006068576   12.60639887578482    4.62848255356520
C          -2.50463669875746   15.35743753508617    2.61837497596148
N          -2.46515981591455   16.22789501644763    3.36128747544021
C          -3.37525165736530   13.66481597328046   -1.68947724513743
C          -3.43274574173586   12.52984490433510   -2.53209979528286
C          -3.04686947308002   11.21026901839265   -2.07644899235264
N          -3.16725222342491   10.30458625049485   -3.04767611324482
S          -3.70569978245091   11.01740600787201   -4.37882181577381
N          -3.81360327851898   12.51255039268060   -3.80989426699520
C          -3.67149055134421   14.98556534805842   -2.11757966684900
C          -4.11625635047451   15.37862195621564   -3.37195002107284
C          -4.26037516703473   16.75593186288932   -3.46104248413154
C          -3.91696092474453   17.43333097247379   -2.27790519642372
S          -3.44151504244639   16.33972265978498   -1.02745133954159
C          -4.04271651098130   18.81416010130847   -2.41133236398603
C          -4.49412927590347   19.19396952784271   -3.69184694945475
S          -4.75905452038596   17.82828521303274   -4.74171574197172
C          -4.61860744592733   20.56475180828317   -3.86430358031273
C          -4.26010100769231   21.26426521177489   -2.72143506996053
S          -3.75747010053842   20.18293522211208   -1.41720618387745
C          -4.17864295879607   22.64325266129654   -2.43733407258936
C          -4.61416033208725   23.73521792957581   -3.13432549873021
C          -4.40513552576348   25.10267013426115   -2.68131054967284
C          -3.45621650010159   25.53101122120476   -1.79056583882471
C          -3.28585944925549   26.88002625325040   -1.41392479014951
N          -3.09996922436538   27.95811615226590   -1.06618157371993
C          -2.48307264369576   24.71342203638000   -1.17673395826124
N          -1.64254482292446   24.12180726026149   -0.66460914191643
C          -5.31538651192451   25.96356187861673   -3.42413738759376
C          -5.96198700188132   25.17743095474138   -4.41893577355690
C          -5.50300710996052   23.78072214758906   -4.32348901243606
O          -5.81879332416348   22.87610374928549   -5.06825176176847
C          -6.86927965876418   25.71516800291628   -5.28577951918765
C          -7.18651965905549   27.08833489126722   -5.18560035184194
C          -6.55337144672814   27.87886563717304   -4.18326414041133
C          -5.61030661011643   27.29572956705534   -3.30615926659599
C          -6.88582972154098   29.24525544331934   -4.08537514935401
C          -7.79860422065383   29.80633902085034   -4.93646918663391
C          -8.41984795250578   29.02778995451895   -5.92437212805106
C          -8.11977700713424   27.69812014496376   -6.04681577745845
H           3.84814284605766    0.25575847153237    5.97505961491519
H           0.78265632710907   -1.04307180427532    2.26021788282954
H           1.85167013221085   -3.21632679843925    2.14398150088756
H           3.53853872733258   -4.81833314650583    2.95091595234933
H           5.05493011067839   -4.20454288102239    4.79234745181924
H           4.89820953534426   -1.98025783026450    5.83966748481548
H           1.19123591727696    4.64401950351852    4.90187126882328
H           0.14224261995664    3.58817135491870    1.28624026161917
H          -2.30858636243669    8.47535176995196   -2.06149024091784
H          -4.31237680055565   14.67865959576601   -4.16190635273271
H          -4.95387207979144   21.04630780788627   -4.76412713528483
H          -3.70807737820382   22.84608808696304   -1.48137270362207
H          -7.34272144757226   25.09925702081596   -6.03600009882452
H          -5.15172452157942   27.91825080544653   -2.55437749953440
H          -6.40327300336457   29.84066394682699   -3.32425919052574
H          -8.04701721558658   30.85374420698895   -4.85301191504862
H          -9.13790275941226   29.48672923910753   -6.58740525346082
H          -8.59539008590559   27.09373901930053   -6.80538511429504
