162
 SCF done       -309.011708717708          0.000829809173
C           3.69755456306767   -1.31572249754141    8.71610070070216
C           3.09104722042619   -2.29081584710966    9.46487064990763
C           3.75610180965926   -3.43075295615546    9.96470489945864
N           4.23096613696137   -4.38140022282226   10.39970553085619
C           1.73726055999559   -2.31427279805233    9.86042622776434
N           0.65358518595378   -2.41307928336083   10.22967906336241
C           5.10521849990351   -1.30527835565129    8.33260788923477
C           5.37186058843357   -0.10595093506839    7.61274926944308
C           6.61076774944899    0.18276680662983    7.11821507112152
C           7.66318189857890   -0.73771955258973    7.31972685816444
C           7.40600724292665   -1.94201066644000    8.03627036167160
C           6.11264550437336   -2.21023110775578    8.54057155195171
C           8.46178088436723   -2.85639431012776    8.22748440831746
C           9.71142714241670   -2.59601794720071    7.73443268192049
C           9.96338144152563   -1.40976633698148    7.02924816926565
C           8.96118198395492   -0.49999583512687    6.82693482853833
C           4.13609507124666    0.68469774560850    7.51045884755219
O           4.01707855710356    1.77114958897700    6.97809323287529
C           3.08625423640828   -0.11151564790695    8.17615498333422
C           1.75705647062340    0.19499723421864    8.23117459170252
C           1.04434977859695    1.30151276122732    7.71941954713524
C          -0.33399480910371    1.37222046672856    7.81301073014672
C          -0.88828509877077    2.52110100162053    7.22951162292386
C           0.11987654138381    3.36971325967093    6.69200064272425
S           1.71330279420270    2.69997920117468    6.90415047377046
C          -0.16759274879907    4.57944425865669    6.07058669036758
C           0.87357146859761    5.46890208659309    5.54545418557636
C           1.90593708855786    4.98997367437922    4.74322756903693
C           2.87525757646058    5.84884053372270    4.26519393411022
C           2.84989286528881    7.20434382578687    4.57436006174573
C           1.82131573655221    7.67894973595815    5.37927630074626
C           0.84547571527032    6.82713967903101    5.85823375460284
C           3.92155417512545    8.12068082764942    4.07111340292813
C          -1.52451734951398    4.93410215727477    5.98418407858734
C          -2.51395818682699    4.11081000344940    6.57734143239151
C          -2.24865487500252    2.89058916428528    7.16728338714384
C          -3.35156677934602    2.01383442797919    7.57169596032166
C          -3.40987474503753    0.70093180412867    7.10747044411372
C          -4.51465059374169   -0.08441601786349    7.36810215271085
C          -5.59025296650712    0.40971437828833    8.09862638630174
C          -5.51864130862851    1.71144159522349    8.57967968008971
C          -4.41868497671936    2.50547668184328    8.31977719889412
C          -6.80618783459948   -0.43056352499716    8.32861052977996
S          -4.11102079074605    4.75810571230274    6.32358809182775
C          -3.46948556767136    6.03408264197995    5.30508357173021
C          -2.10282332871185    6.00600337485185    5.26148377205272
C          -4.32822560576558    6.97552541255227    4.63145532847979
C          -3.66129313534578    8.23406422459648    4.23701438856675
C          -3.61998700105443    8.64728877649850    2.90484200939342
C          -2.91286083572650    9.77790499131098    2.51324573734372
C          -2.22005916680542   10.52458488678142    3.46252926036184
C          -2.25463767293989   10.13924108797437    4.79855634765370
C          -2.96494276074853    9.00347026654746    5.16953802641492
F          -2.98688874384580    8.65589682840312    6.45893193747793
F          -1.60022081612629   10.85491243326434    5.71474568447414
F          -1.52758919908479   11.60248205194531    3.09432557747448
F          -2.88674393418303   10.14489739975680    1.23131355040025
F          -4.26395556710925    7.94151343088998    1.97403514513716
C          -5.63700868459396    6.73349708012287    4.32694694418332
C          -6.21521752317990    5.38415751888605    4.52417519834519
C          -5.73211150740958    4.28280658550506    3.81780207657518
C          -6.23155912035899    3.00488828741738    4.03571185459356
C          -7.24138046140852    2.81094769356895    4.97375849358726
C          -7.76145312474096    3.90038043505354    5.66462396791212
C          -7.25380695084986    5.17273085098908    5.42780219964307
F          -7.74499821778070    6.20483380964577    6.11692798219991
F          -8.73285541356184    3.71744765751530    6.56037655447215
F          -7.70794720910107    1.58515551542843    5.21130556114531
F          -5.73690113963826    1.96306772262619    3.36571407913838
F          -4.74546069239726    4.45204856377985    2.93576089782459
C          -6.55138148474780    7.71234799720193    3.80533220397785
C          -6.54247572077801    9.07191242915756    3.94193829900817
C          -7.63559109529937    9.71052201795841    3.30986160569767
C          -8.51850210877411    8.77984731619821    2.70361079627205
S          -7.93699127836682    7.14861258276919    2.88994604657697
C          -9.67377017706609    9.14988773898000    2.03830898746859
C         -10.54581722332278    8.16724914532740    1.38586267009777
C         -10.98292636910591    7.04097476778127    2.07672535359762
C         -11.80217341239086    6.11497667267784    1.45967878502305
C         -12.20030491968028    6.28151828423072    0.14008577902336
C         -11.75506388337597    7.40500906450374   -0.54944683195323
C         -10.94257019628898    8.33767317412775    0.06076361744309
C         -13.08277282978763    5.28092673345100   -0.53930634874616
C          -9.96843830062306   10.52773431422241    2.01985412073804
C          -9.08584565890234   11.46190507839498    2.63041173045884
C          -7.90837197113444   11.08810915226544    3.25819852063926
C          -6.97048381513151   12.07058283410673    3.81679035163349
C          -7.39534240029533   13.03481161207541    4.72515045078071
C          -6.50045175236582   13.95249380243530    5.24010642085476
C          -5.16522631865820   13.94407108861762    4.85537046162116
C          -4.74791419839574   12.98760001379802    3.93660890020808
C          -5.63329681274482   12.05864414687328    3.42761938522140
C          -4.20128226097801   14.95548421981016    5.39114758662726
S          -9.67061123473380   13.08757720753373    2.44933425462100
C         -11.11211907536422   12.51437630826376    1.60415516439780
C         -11.10360722068882   11.14851248931398    1.46315383523878
C         -12.04173021241731   13.50795586060750    1.21688887163725
C         -13.26614112735844   13.42186611640796    0.61785427466518
C         -14.10269713353148   14.58556457399676    0.34539189403806
C         -13.72817808990422   15.90306744879731    0.38006704776131
C         -14.59768868035089   16.97556581958432    0.08602199779808
N         -15.24725434267588   17.89546041055708   -0.13705520443003
C         -12.43937377432191   16.40387955440007    0.66448138344987
N         -11.42610457101062   16.90758870966562    0.86248166660035
C         -15.42438355837839   14.10706717525872   -0.04188926534108
C         -15.37904392369771   12.68850218822126   -0.13077400890579
C         -14.03237798964079   12.21156488032006    0.22374543890398
O         -13.66322068193898   11.05579214564778    0.17819412296914
C         -16.46876876249569   11.94891523452884   -0.48981747347222
C         -17.68520817567578   12.60896991894546   -0.77091729505465
C         -17.74457121129541   14.02901030899632   -0.67087119806999
C         -16.59595401930951   14.76742147845957   -0.30446579538720
C         -18.96602527183733   14.67765978604183   -0.94491917476878
C         -20.07480904005977   13.96045745085334   -1.30308779983151
C         -20.01418072220616   12.56241034083709   -1.40379329011653
C         -18.84484224732393   11.90109798719423   -1.14318262601598
H           6.78396736256083    1.10093771585982    6.57670542245765
H           5.95271731513569   -3.13215955011378    9.07626055498879
H           8.26311275391957   -3.76804321773137    8.77165075294471
H          10.51311735483727   -3.30331753124663    7.88513336339488
H          10.95515778140278   -1.22084557356548    6.64641878030689
H           9.14881282813853    0.41510574202400    6.28443339747475
H           1.10994270680708   -0.52261220058382    8.72170221591069
H          -0.91900857863315    0.61409057406252    8.30377492717856
H           1.93640601926005    3.94478827022915    4.47606757059587
H           3.66691975611824    5.46171695282138    3.64034918312825
H           1.78689541521840    8.72759417351511    5.63944604498531
H           0.06891097858844    7.20864756834653    6.50608784742285
H           4.20121864313680    7.86554956674841    3.05110049114750
H           4.81135539775949    8.02666120098999    4.69428474080118
H           3.59533868316763    9.15739762498185    4.10059410433817
H          -2.60109554820685    0.31204948025438    6.50610398599915
H          -4.55114134337633   -1.09469114619671    6.98716253377974
H          -6.33744441807286    2.11113670699908    9.16039601555490
H          -4.37541857475028    3.50864903634542    8.71817465932440
H          -6.53684649741654   -1.47607592646397    8.45962397625433
H          -7.46794872167397   -0.35948731466787    7.46460318054243
H          -7.35509520432535   -0.09157939952524    9.20358710340497
H          -1.51583522256752    6.68755712462326    4.67128640557795
H          -5.81706935020110    9.60899837833865    4.52567473908501
H         -10.70469915727999    6.90575248952236    3.11175288523891
H         -12.14026861828176    5.25222638626130    2.01563948753927
H         -12.05237105549375    7.54881149605798   -1.57802041046295
H         -10.59085204181690    9.19337589202282   -0.49613760661034
H         -13.40008252029436    4.50525264013755    0.15285401720176
H         -12.55205972218802    4.81114781362597   -1.36702948361629
H         -13.96612035880066    5.76982593083279   -0.94725858145752
H          -8.42696129361761   13.05031632509156    5.04381453349791
H          -6.84465108630747   14.68923589867494    5.95116598254147
H          -3.71837206372395   12.98674776099160    3.60970703339218
H          -5.30287909579049   11.33478282441937    2.69555527646801
H          -4.15544639294322   15.81352221447785    4.71976682357527
H          -3.20053475910812   14.53624116203126    5.46707749635459
H          -4.51352529902682   15.31035071776853    6.37029119277651
H         -11.89988985204904   10.60808342744565    0.98580770618256
H         -11.71230557987701   14.50675119717201    1.47972103842748
H         -16.40288943431837   10.87278431915045   -0.55321991028378
H         -16.67721114006050   15.84026054957008   -0.23491894765138
H         -19.00760218876168   15.75421806805726   -0.86753880368429
H         -21.00541548272643   14.46671504240354   -1.51151846631410
H         -20.89864963191906   12.01237640682857   -1.68852029063337
H         -18.79173753331267   10.82471131996680   -1.21811288446601
