88
 SCF done       -176.302913060190          0.000748532601
C          -3.93830611226304    3.33705212236214    4.26536241403595
C          -5.01677890950477    3.88856292397174    3.62642695532438
C          -6.12383726985158    4.44287439617005    4.29952485363640
N          -7.04005531864240    4.91387763136047    4.80520203045914
C          -5.17193887108314    3.87108599878724    2.22464278727587
N          -5.34292200165278    3.82692069279127    1.09041646702509
C          -3.84440633495530    3.06990173745626    5.69469747821468
C          -2.88831127303396    2.03104006355811    5.89744537359633
C          -2.61760515593775    1.54332299693225    7.14358611915952
C          -3.29039988204194    2.09091092102656    8.25948097226895
C          -4.23305589496713    3.14173624923989    8.06322000753163
C          -4.50219851753349    3.62058051907682    6.76061344391906
C          -4.88827002498846    3.68552749466939    9.18658210843119
C          -4.62954731781746    3.21346193338003   10.44448159978120
C          -3.70345209141260    2.17740167193275   10.63693295941144
C          -3.04889511320144    1.62789624967197    9.56807285135848
C          -2.29691918555989    1.65002104850127    4.60148084067663
O          -1.50244263568840    0.76911053491007    4.36863204484692
C          -2.83749090289536    2.64287775139938    3.62658951199790
C          -2.21645049834798    2.83440444814498    2.43521103686384
C          -2.27957773067011    3.96733202390700    1.58236845722095
C          -1.95552815129697    3.99918699691610    0.24064272327563
C          -2.08284649748573    5.27717019553509   -0.29970060387012
C          -2.46034310583487    6.24772399343733    0.63854943682483
S          -2.68564307367322    5.56532290917980    2.19903691452687
C          -2.57034685884439    7.52128162330754    0.07581006512996
C          -2.28436593446597    7.51639593893550   -1.29778269538051
S          -1.86591545570393    5.93685146636358   -1.89599725021183
C          -2.40348471448414    8.77106085702285   -1.89472262230250
C          -2.77612807582245    9.73119895459384   -0.97766138138750
S          -2.98293508383409    9.09688615220454    0.63928399425636
C          -3.01534143259460   11.10859644261014   -1.19659710290058
N          -3.33948792846983   11.94039304245295   -0.25259339955766
C          -3.52762560205591   13.16465013359298   -0.74081971773342
C          -3.35019058672443   13.32303632974642   -2.12659221295857
S          -2.91093547470558   11.81746817684138   -2.83103649219107
N          -3.55317830681367   14.54419225777412   -2.61802621298831
C          -3.88634765196054   15.37165173773105   -1.67001351014641
S          -3.96997528297409   14.66537328851155   -0.03601858918060
C          -4.18982566921263   16.73862220725124   -1.89098990690229
C          -4.22284466082272   17.37980343868095   -3.11294214369522
C          -4.58516998290482   18.71915835001121   -2.97772856929018
C          -4.82435757112257   19.10498977203480   -1.64990700862473
S          -4.59891753161978   17.79176696029343   -0.55649641504289
C          -5.19563814127999   20.44714248979862   -1.54561783732104
C          -5.24642302114539   21.08250639763191   -2.79971575808707
S          -4.81947882254428   20.01762123626287   -4.11191276986324
C          -5.62717650031763   22.41724596197029   -2.74345475450420
C          -5.87527338252970   22.83066563735238   -1.44521105608795
S          -5.61225186146548   21.52613581232334   -0.27952389274337
C          -6.26214126687031   24.07043288979974   -0.89390854907572
C          -6.67575718654578   25.23246393453027   -1.48226106751311
C          -7.02829720401738   26.42728613746666   -0.72752022156087
C          -6.69873875954338   26.70474349864591    0.57345651315800
C          -7.05961666501023   27.89557465232998    1.23909940369680
N          -7.32378426314838   28.83762985325673    1.83936890679590
C          -5.92111354959224   25.88795261363312    1.42195731484118
N          -5.27813348676362   25.29808289929553    2.16894927305227
C          -7.72966015111857   27.33410758615772   -1.62709880945712
C          -7.70388067125683   26.77582048583252   -2.93561099451000
C          -7.00022148829408   25.48257641149858   -2.90945987696238
O          -6.76392506698056   24.78562755542305   -3.87480628185127
C          -8.27675798190467   27.40619316015324   -4.00235542453296
C          -8.92285629467248   28.64643892991932   -3.80264797421249
C          -8.96072249328426   29.20883374611280   -2.49400967241057
C          -8.35308049620098   28.53446670474093   -1.41011209730915
C          -9.61297650876268   30.44425185332625   -2.30491190726041
C         -10.19992445094734   31.09421746077198   -3.35628558658710
C         -10.16209419503967   30.53944036848030   -4.64426590398205
C          -9.53637782843833   29.34208320295021   -4.86286510928620
H          -1.89746182750063    0.75002051162964    7.27856930448342
H          -5.21269158270878    4.42316128262334    6.63644518173787
H          -5.60278380933368    4.48068294154285    9.03237192097980
H          -5.13763348530781    3.63567157305127   11.29849076838985
H          -3.51086442243089    1.81730493907790   11.63644683092118
H          -2.33463702166660    0.83021492718675    9.71074315190482
H          -1.52038796460647    2.05683993049571    2.13553190648491
H          -1.67908235057931    3.12418764103920   -0.31799453805896
H          -2.23307562409416    8.97943674491265   -2.93484776297233
H          -3.99863174780164   16.88035748211156   -4.03602783892646
H          -5.73155650442580   23.06492690220966   -3.59412676839729
H          -6.24859889873133   24.06564018933616    0.19034356283560
H          -8.23926487953396   26.96207711851047   -4.98603055169595
H          -8.40449291650135   28.98397759947202   -0.43133879492150
H          -9.63885370986381   30.86763985057292   -1.31159160756341
H         -10.69761772358444   32.03967499047920   -3.20101726911083
H         -10.63124047164960   31.06545828271949   -5.46223888696835
H          -9.50361764657442   28.91007498016726   -5.85239208886653
