111
 SCF done       -220.029494568199          0.000927033547
C          -0.49350990392200    0.93748305188212    2.24355196020088
C          -1.57108228325782    1.61877770688401    2.75060301620657
C          -2.88371874300305    1.11437220246433    2.76661718433426
N          -3.98253535939458    0.77848850278136    2.74400021159107
C          -1.48985117015453    2.91590759940141    3.29236395179612
N          -1.47883278731810    3.96103885318878    3.76828194954300
C          -0.47406442215801   -0.48412579653973    1.91641456543816
C           0.88233018710351   -0.92148224481086    1.87710602278335
C           1.21009865083535   -2.22337483243878    1.63251154465681
C           0.17942906679187   -3.16301698634978    1.40300989379209
C          -1.17771109544259   -2.73028048403208    1.42735430977200
C          -1.48756566933668   -1.37560844277816    1.68919779528937
C          -2.19579428064182   -3.67702895925963    1.19419380152505
C          -1.89085905136799   -4.98865815506075    0.95180503112026
C          -0.55426884116847   -5.41373035056556    0.92821030207176
C           0.45848343613420   -4.52026262169415    1.14909867031659
C           1.77275521051345    0.22946555703140    2.12194037272820
O           2.97779225743091    0.22954965867467    2.22043645305934
C           0.86944184635437    1.41542756195422    2.16351930922364
C           1.39468086726463    2.65828871055377    1.99951171668146
C           0.73877305527095    3.86608048214689    1.62656575650894
C          -0.45934528910164    3.92249316111543    0.87891011732215
C          -1.13553511026829    5.15942847611524    0.62570111249979
N          -2.39026359776807    5.12252564581341    0.12673655779764
C          -2.91720136912993    3.99504764553926   -0.24251018641251
C          -2.12862358699661    2.79456316478759   -0.22856851470360
N          -0.96455399958006    2.78771870504807    0.35250539056917
C          -2.61110652950684    1.52943221675193   -0.84791594811165
C          -4.33152523100050    3.99385778981312   -0.70858027854980
C          -0.57365752422275    6.39827263018898    0.98321025064069
C           0.68119304195457    6.36106875947623    1.61098253778318
C           1.32463109764674    5.10961402536547    1.93653813950637
N           2.49395178181434    5.29828586500973    2.55148373662338
S           2.76223409190590    6.87431229615625    2.67402948928153
N           1.42969753767789    7.40825719403445    1.97313904922611
C          -1.28634890471413    7.63929361220135    0.77178145256319
C          -1.96543799578782    7.90489119997384   -0.42842719539126
C          -2.73855431934035    9.10167077243243   -0.61529022955888
N          -3.48056475023266    9.24698834448739   -1.73999743145542
C          -3.40375010856185    8.34494319561612   -2.65497353310530
C          -2.53033780261779    7.22581662341213   -2.52472235741801
N          -1.85321113918246    7.02024757851138   -1.44936473154037
F          -2.39074752934744    6.35270322101637   -3.52560902261381
F          -4.16561288021806    8.48389575439890   -3.73930508832178
C          -2.79891461982433   10.10033995680648    0.36874596074757
C          -2.09531375506079    9.85549497101592    1.55846265599399
C          -1.35606029739809    8.62887120065998    1.76569116810155
N          -0.80644579922606    8.58522038472410    2.98271586425024
S          -1.13724589035102    9.94869113213516    3.74755765173084
N          -2.00243440909972   10.67215402752711    2.61380918652654
C          -3.56160036303606   11.31783722128201    0.18550606800963
C          -4.41148651142619   11.80820720551108    1.19514300755404
C          -5.12238776193090   13.03778869139569    1.03348315053990
N          -5.85943288283111   13.51968555540816    2.05767798092560
C          -5.94811671414634   12.84348250546495    3.16603735868879
C          -5.34699931425656   11.54354083856264    3.27310298775337
N          -4.60495897800722   11.07434649330546    2.31415150970896
C          -5.55522433960188   10.68625021626534    4.47457364622213
C          -6.71351249887069   13.45567460184433    4.28652525239929
C          -5.08883384200900   13.77767615941095   -0.17062539001595
C          -4.21351446878495   13.30555467995989   -1.16473174723423
C          -3.46314538574384   12.08150740040473   -0.98632687609783
N          -2.64117985645908   11.85176703044575   -2.01755060103221
S          -2.80736104461161   13.03214075943798   -3.08019215370062
N          -3.88832182739196   13.91976759162071   -2.30471225158600
C          -5.85216048489682   14.98262274253757   -0.25026355389113
C          -6.39681229564127   15.54530030547743   -1.35837851486629
C          -7.00158465320372   16.86713367323495   -1.42548758507611
C          -7.31763147843242   17.68425108024963   -0.37253308359033
C          -7.90202611563149   18.96091236104075   -0.51478177319011
N          -8.37000347085469   20.00845260622684   -0.56077368476289
C          -7.16228809449909   17.37138702603319    0.99514938408964
N          -7.08844873421550   17.20978005400502    2.13013840123322
C          -7.23909203130699   17.16731188394958   -2.83281816715822
C          -6.95077616798415   16.00420155871786   -3.60277951291651
C          -6.51225503019410   14.91887201126083   -2.70505006510952
O          -6.38594661689602   13.74926345137283   -2.98892752345260
C          -7.09389619528655   15.98524573037511   -4.95954171730549
C          -7.52070158284647   17.15665365007130   -5.62492768799253
C          -7.80275965605005   18.32688379629270   -4.86288215799456
C          -7.65926577175446   18.31262146314947   -3.45692050260169
C          -8.22550967861260   19.49101629640109   -5.53686456055284
C          -8.36287684985878   19.50119753310163   -6.89796516653727
C          -8.08506072403494   18.34823359953190   -7.64751926171227
C          -7.67330308745756   17.20140764698037   -7.02462028403242
H           2.24386482949978   -2.53516970487883    1.61543628722869
H          -2.52338532095058   -1.07389639129441    1.69668977083711
H          -3.22385604103023   -3.34602573658454    1.21658905618883
H          -2.67836892897077   -5.70657361619315    0.77764314930918
H          -0.33131999051588   -6.45229934326878    0.73450074369957
H           1.48964401925831   -4.84163724853294    1.13264971925012
H           2.47050275044121    2.73527345474068    2.12222655197295
H          -2.88795333381399    1.69665867119217   -1.88723429471061
H          -3.49325495548659    1.17041009867364   -0.31773097783461
H          -1.83011651890614    0.77534623437499   -0.79614887003404
H          -4.75198645731381    4.98853823042824   -0.59127511279904
H          -4.91741801496311    3.28141470590294   -0.12971117655446
H          -4.38419775171944    3.70289239369511   -1.75697669465052
H          -6.61805372153589   10.53286148713539    4.65401433895919
H          -5.13145027294725   11.16594432327057    5.35576376762318
H          -5.07102480499554    9.72625932814377    4.32108092081929
H          -7.02310330310337   14.45771144122786    4.00286122273998
H          -6.09985102397783   13.50233661310730    5.18443998236843
H          -7.59510682810944   12.85745048414568    4.51350028245880
H          -6.00746502033967   15.45614907536992    0.71095593003694
H          -6.87602269895105   15.08868743118879   -5.52066168956292
H          -7.88088721197672   19.21444315261774   -2.90857153529533
H          -8.43935894736964   20.37550308375044   -4.95481242002525
H          -8.68648453619945   20.39785125016504   -7.40509706616092
H          -8.19912736977750   18.37367281988887   -8.72101588898970
H          -7.45865012097571   16.31064177810914   -7.59685054442940
