153
 SCF done       -273.321076197004          0.000755919515
C           4.70324164462588    8.93742041305399   -4.01852161874677
C           5.90386511733377    8.58850496542670   -3.45390878425072
C           7.12246016333809    8.52910750864911   -4.16232434127710
N           8.15044124667845    8.46380284557675   -4.66981112359133
C           6.11696180309722    8.22546414922745   -2.10810360962749
N           6.38513617997567    7.90812384691788   -1.03654142646481
C           4.50544094942864    9.27433748007623   -5.42474604117254
C           3.12180556072770    9.53216675180437   -5.63988185855094
C           2.62814398214361    9.86336922664067   -6.86821205843495
C           3.51540075889689    9.95572383904229   -7.96382267393478
C           4.90264979516186    9.70561286568929   -7.75792262876053
C           5.38330927540591    9.36396218057849   -6.47266168288915
C           5.77993514441624    9.80237763715938   -8.85712506391718
C           5.31099155540117   10.12764366759247  -10.10084469621611
C           3.94443872264023   10.37164057765078  -10.30264428034623
C           3.06582039523822   10.28813785260491   -9.25661372056892
C           2.39577265409004    9.37863480008966   -4.36935545881008
O           1.20154548622999    9.53138950693681   -4.19962441902589
C           3.40986397127701    9.01547669222964   -3.36136035550863
C           3.18293414009594    8.80401207238334   -2.02996013934390
C           1.98552279191526    8.81907503172645   -1.28518977439222
C           1.98391576337391    8.55424283698577    0.07505811605040
C           0.71145623832894    8.56961661638298    0.66142050907305
C          -0.29219187642864    8.89439758394088   -0.29333595474983
S           0.37112687900668    9.12875679778459   -1.88840332175183
C          -1.63761080029232    8.96751285878205    0.03388587673450
C          -2.67268304015231    9.25372660601149   -0.96507133436214
C          -3.80080760922232    8.44131553787054   -1.07088768123654
C          -4.78469270824414    8.72547142861306   -1.99553170287791
C          -4.67575759229591    9.82511069140826   -2.84007030451748
C          -3.54415346352303   10.62478275791666   -2.74165641125735
C          -2.55293573020976   10.34495429291523   -1.82119005458648
C          -5.74810833079087   10.12001515969962   -3.84251762913052
C          -1.97195962148710    8.73885991254648    1.38311888337046
C          -0.96385813492679    8.43567031211792    2.34042305300132
C           0.37245313693094    8.32228266281837    2.01255569442519
C           1.38989408343572    7.93911050662643    2.99789188821260
C           2.27157319297445    6.89207017510101    2.73416965685923
C           3.22250962512374    6.52629040664691    3.66457150434469
C           3.32714848802258    7.19309745398374    4.88112907811815
C           2.44361650053278    8.23173970524340    5.14274293117871
C           1.48414436525743    8.59981960953171    4.21876979750843
C           4.37468934832890    6.79085880689762    5.87254461898964
S          -1.65308595103488    8.18985846421556    3.92842178512612
C          -3.26626197168103    8.46863910780697    3.30427254170761
C          -3.25426871763870    8.76909915546846    1.96392084727938
C          -4.39616949318643    8.35618726247550    4.16997296154498
C          -5.73671664300419    8.31024983473868    3.72556753576024
C          -6.83097296126478    8.17030723209038    4.64857028179646
N          -8.09367525206164    8.12558050155724    4.17630172015100
C          -8.31078826149159    8.19612363010290    2.90450843644838
C          -7.23043430823741    8.31229847561387    1.99458925111992
N          -6.00578825832387    8.36658995165247    2.40278866536068
F          -7.44231776300885    8.36273240724784    0.67819932137154
F          -9.57081022018414    8.14825383227804    2.47853309361284
C          -6.65812746006548    8.06854821577641    6.04569546446319
C          -5.31935666535009    8.11493331956429    6.49432309879243
C          -4.22065124777860    8.24418697533346    5.56608191534726
N          -3.04337869277678    8.25314584799576    6.19121308474740
S          -3.28107965883920    8.11779137498561    7.77034618100514
N          -4.88427950085772    8.04045864578777    7.75430031491797
C          -7.76818451458121    7.91055068696755    6.92809761619969
C          -7.71171783788604    7.82305999482969    8.29974124853562
C          -8.96861757271530    7.64893589757329    8.90931723009149
C         -10.01298837799474    7.56485863684702    7.94956603035752
S          -9.40064766311759    7.77409885722578    6.32403166360454
C         -11.33858078154576    7.37312129717131    8.29601465032106
C         -12.40853046336020    7.34543792177386    7.29338439244610
C         -12.29077041995241    6.55461929014153    6.15238962580179
C         -13.29460353340049    6.53745362645336    5.20561887492145
C         -14.43999589361394    7.30984892958020    5.36310960479094
C         -14.55212693069632    8.10121088771955    6.49929070394484
C         -13.55458338896468    8.12096979665434    7.45402024875126
C         -15.51184269206271    7.30221806617074    4.31736390382287
C         -11.61575968318277    7.22166318461287    9.67274953245595
C         -10.56551806877012    7.30316840190218   10.63056833791804
C          -9.24541128663401    7.53822914211422   10.28732182043028
C          -8.18799214652342    7.68871397280076   11.29325428475906
C          -8.02581633293236    6.74891827779192   12.30851067925127
C          -7.03426130816561    6.90649645223240   13.25539465423218
C          -6.18199898491025    8.00521214175784   13.22464084205254
C          -6.34939939091391    8.94284552326695   12.21384713324341
C          -7.33547781587272    8.78929403683133   11.25861780655905
C          -5.10918073569469    8.15855759999222   14.25808216691370
S         -11.17559117073511    7.10744863728661   12.24806479922366
C         -12.81841858550756    6.89370834814219   11.64311693838920
C         -12.86443585552070    6.97012516524821   10.27034157802329
C         -13.81170613784651    6.62030134701920   12.60886297364300
C         -15.17498906520293    6.59089878217098   12.50718343495888
C         -16.05179466496488    6.21915018292044   13.60674716326591
C         -15.69382644572303    5.55965830385892   14.75440899050244
C         -16.59992513190187    5.21558752908424   15.77919068733263
N         -17.28332845641966    4.91330922014496   16.65100171957796
C         -14.40193735748042    5.08746055520134   15.06931907832231
N         -13.39490004581781    4.64406621830457   15.39948717747647
C         -17.41364216754477    6.58868999624605   13.24145838963361
C         -17.39941548068276    7.08993449469341   11.91019199166410
C         -16.02107817589253    7.07551003686057   11.38842421334438
O         -15.68331851238590    7.42711985057615   10.27681650318437
C         -18.53727687375187    7.50599591108203   11.28178415663601
C         -19.76787595163227    7.44186027354747   11.97278782188041
C         -19.79028114171873    6.94866403464295   13.30906014620719
C         -18.59457555688769    6.52333066542333   13.93241060198213
C         -21.02295809327435    6.89126135889580   13.99061089187733
C         -22.17892590127940    7.29957925133902   13.38292054721319
C         -22.15563941106984    7.78491289826902   12.06696974731278
C         -20.97584296462030    7.85419266547142   11.37695987769407
H           1.57313216065658   10.05135972191452   -7.00199769003027
H           6.43915656128963    9.18129743756753   -6.35281330038342
H           6.83122571123227    9.61284231028672   -8.69701341489246
H           5.99102626427630   10.19822939386480  -10.93653500305596
H           3.59132565749385   10.62601114376197  -11.29085378459793
H           2.01234040646323   10.47514421392974   -9.40556755721852
H           4.04831434882549    8.57554485446127   -1.41893840048400
H           2.89053399642401    8.36323807178653    0.62232885748299
H          -3.89239080092579    7.57045684564870   -0.43866315521926
H          -5.65500503341269    8.08873851718617   -2.06048009812837
H          -3.43879009574457   11.48257514038386   -3.39024798113410
H          -1.69240950393114   10.99258534182200   -1.74574432967071
H          -6.73224288317856    9.93143079015653   -3.41866524996629
H          -5.63027152775929    9.47524629222251   -4.71405808291631
H          -5.69728898999605   11.15366432959241   -4.17596649600919
H           2.18896016730945    6.34704096166266    1.80491705571631
H           3.89629172610022    5.70989254254563    3.44717912438648
H           2.50719439821008    8.76281802939344    6.08170863527644
H           0.81588495255638    9.41984124986332    4.43463768749352
H           5.36856734639079    6.96161769663159    5.45980711353169
H           4.29111285645727    5.73020700435676    6.10531800822340
H           4.27995174485912    7.35945665482519    6.79405227784266
H          -4.14684650854476    9.01340577406605    1.42166268836982
H          -6.78383826763421    7.86645367251029    8.83889024361794
H         -11.41915381179533    5.93107568126494    6.02196453471134
H         -13.18998303310596    5.91367635467940    4.32959362631346
H         -15.43268012731284    8.71053295136620    6.64201430176639
H         -13.65542827213227    8.75794592397911    8.31971349227765
H         -15.65764275273517    6.29973938619169    3.92022908936502
H         -15.22566601056999    7.95077271010433    3.48867556824149
H         -16.45407041077093    7.66331028041569    4.72224667614252
H          -8.66648285944812    5.88035652557231   12.34154573466953
H          -6.91775563108622    6.16604517727860   14.03349751215688
H          -5.70308475352966    9.80830931275784   12.17565399882131
H          -7.46708553587693    9.54094228176559   10.49405504294556
H          -5.52350077888083    8.04166426148565   15.25798217598614
H          -4.63414309358986    9.13374981516083   14.18687763114744
H          -4.34575981865160    7.39215769190703   14.12391544678371
H         -13.77045254468523    6.83313400930331    9.71090392680747
H         -13.40117252423884    6.43017878885098   13.59435301395614
H         -18.49838932966970    7.87987774184811   10.26923454317025
H         -18.64509282917484    6.16067895774937   14.94660557934651
H         -21.03591875049136    6.51534183481844   15.00317249201530
H         -23.11823519997708    7.25059513950038   13.91315986293618
H         -23.07712601120382    8.10340002654839   11.60277772883475
H         -20.95172866213064    8.22658794264145   10.36315043462916
