95
 SCF done       -196.941206270828          0.000871640273
C           2.19285468420113    3.40682445944754   -4.83142114952509
C           2.86555137253309    4.58219503985982   -4.62320823035155
C           3.53393479238006    5.29159697526490   -5.64027881407077
N           4.08016763137843    5.91063458404291   -6.43766953861706
C           3.03969447028149    5.14903109627370   -3.34353893390242
N           3.24177507985071    5.60023947731770   -2.30769749906193
C           2.23747120152777    2.60903203107003   -6.05096770663409
C           1.90898060166878    1.26136126215291   -5.71923047490282
C           1.91497748253880    0.27178632574949   -6.65953334292272
C           2.24300304961983    0.59285418855257   -7.99630333906608
C           2.55493306723676    1.94122176816111   -8.33617998916815
C           2.54935202688694    2.94490436784806   -7.34019271886674
C           2.87292532218282    2.24778011227412   -9.67480056496640
C           2.88643467314748    1.27093376178568  -10.63286327129975
C           2.58104908843780   -0.05645539172851  -10.29721873323273
C           2.26666531622514   -0.38814351192019   -9.00725767896456
C           1.57852003654363    1.17716634979739   -4.28466485226864
O           1.30738471443636    0.19449778523313   -3.63405916469040
C           1.57802265658915    2.59005068622136   -3.80591079397383
C           0.95421089176973    2.90435082758697   -2.64001967312702
C           0.45004463113061    4.15287955799193   -2.20164220052144
C           0.08876551347310    4.46371921537698   -0.90230443741781
C          -0.44131306890106    5.74460490369893   -0.79481230370440
C          -0.53034974828711    6.42017492355619   -2.02359739783945
S           0.07037859743892    5.46045139783825   -3.31705176801789
C          -1.08984381190817    7.68984612932387   -1.89643810913926
C          -1.42776981073800    7.98554501882110   -0.56494034891230
S          -1.04864704845525    6.68925451565518    0.53538247405770
C          -1.99923192484423    9.24101254789322   -0.40095436118873
C          -2.10384106049890    9.92493535715822   -1.60184068834979
S          -1.47327021533936    8.99576656079472   -2.95375582795178
C          -2.65281092953030   11.21636336791217   -1.84592796895935
C          -3.25453568437958   12.03942907608986   -0.86526994108796
C          -3.82941108836914   13.31306225026816   -1.20296908069696
N          -4.40647622720932   14.05729489516284   -0.23782493277171
C          -4.43638161662367   13.62727967597663    0.98032409741452
C          -3.86484197310877   12.37124945625788    1.31308508540662
N          -3.30599716653024   11.62471293198434    0.41888863720279
F          -3.88770543368657   11.91964165057789    2.56473831550916
F          -5.01337611431189   14.38952581814851    1.90143674485889
C          -3.83461090606393   13.84340320353210   -2.51259733001970
C          -3.20613371467464   13.03843022076824   -3.48972145001939
C          -2.63833017610653   11.75663664258789   -3.15171147506343
N          -2.10875346143759   11.15616481778290   -4.21742569375403
S          -2.29420755037403   12.09332528077224   -5.50424853705443
N          -3.05859608370188   13.30720415549555   -4.78898813757033
C          -4.45454315322609   15.08711563661936   -2.81442043297796
C          -4.51617049254313   15.69303485624421   -4.06048894474816
C          -5.23110732366302   16.88158701541849   -4.02449050698015
C          -5.72627287207064   17.20144082709258   -2.74821123274641
S          -5.28238556357342   16.01000686683993   -1.57755438206046
C          -6.46013364564864   18.38733088209148   -2.75780405264569
C          -6.52517068394599   18.96871284967575   -4.04051523979615
S          -5.66189255808186   18.04957701069629   -5.24242606346076
C          -7.26739076690980   20.13797475566610   -4.09812192261040
C          -7.79403767651914   20.48017859589723   -2.86164203349063
S          -7.32754551643405   19.32090879024812   -1.60846347111438
C          -8.59927433869464   21.55479972937085   -2.43343139112295
C          -9.22932835452373   22.55076911164256   -3.12901989976069
C         -10.03281639799069   23.58502198121794   -2.49148567953314
C         -10.06667030988883   23.90217506255656   -1.15819304866661
C         -10.86430850146959   24.93175998920584   -0.61468515233839
N         -11.48706667796790   25.75017629304789   -0.10417524336515
C          -9.30051352436979   23.30107152264020   -0.13681893927072
N          -8.70762034122943   22.88710637473830    0.75584214567370
C         -10.76192124606474   24.29518093626996   -3.53569861720830
C         -10.34324558942460   23.78906104812095   -4.79721542311193
C          -9.34686074434501   22.72405443397832   -4.59853002097158
O          -8.76856837876166   22.12787516696264   -5.48445991747888
C         -10.84245874550594   24.26918704576350   -5.97342680341939
C         -11.81102297577039   25.29663116087995   -5.94058228106894
C         -12.24417115059086   25.80351311380737   -4.68145856554252
C         -11.70448900579408   25.28796375704979   -3.48047694789480
C         -13.21520915142677   26.82535422137814   -4.65974080879152
C         -13.73262845953671   27.32453431972913   -5.82400489326692
C         -13.30423789575582   26.82526031612258   -7.06311201058735
C         -12.36379891838773   25.83274836534739   -7.12010401371223
H           1.67310559456561   -0.74507357638209   -6.38819231344124
H           2.78111344559094    3.96022237596675   -7.62261425135672
H           3.11109327904155    3.27058155668968   -9.92743314044438
H           3.13356224787724    1.51563188032006  -11.65506347125667
H           2.59599815877838   -0.81473325548708  -11.06576850498280
H           2.03072464059698   -1.40864238551240   -8.74313356757727
H           0.73453451002267    2.06177143301731   -1.99068483948566
H           0.23718396498456    3.79205153150788   -0.07697693728023
H          -2.32868121032382    9.65194989763434    0.53325176733779
H          -4.06116867259630   15.26836551522327   -4.93485786957015
H          -7.43577183583417   20.71824417499094   -4.98636325679940
H          -8.75593110401394   21.55417150699168   -1.36069704567570
H         -10.50289348004000   23.86779413990308   -6.91674971099744
H         -12.05796059372901   25.69130169813915   -2.54516405695392
H         -13.54105816713235   27.20782419371136   -3.70359948532337
H         -14.47527571939338   28.10778103217563   -5.79662274385214
H         -13.72316872989054   27.23073547682396   -7.97194988644054
H         -12.02986745562075   25.44368500283090   -8.07093178500084
