87
 SCF done       -160.332335147268          0.000456639724
C          -5.59819475478597    6.94395568915354    3.86657115945826
C          -5.44819008593214    6.62797250512140    2.53979914479822
C          -5.56853760356584    5.32111349928437    2.02594235787784
N          -5.62846981046412    4.27513235167058    1.55624823495208
C          -5.21480450064796    7.57583235713857    1.52464015171684
N          -5.03910048900656    8.30808533552469    0.65833822167750
C          -6.05361791286196    6.01364390989315    4.89667619591656
C          -6.54977967020585    6.76628865226244    6.00055533664012
C          -7.07206911403473    6.15998668341370    7.10623367294606
C          -7.10769822805850    4.74831550005535    7.16554972029864
C          -6.59375729565477    3.98995210643514    6.07420411032533
C          -6.06866826121923    4.64580635129263    4.93663274158016
C          -6.62244181624190    2.58287149894074    6.15167391772510
C          -7.13663522394778    1.95267209374007    7.25207076404594
C          -7.64507733233054    2.69991412147441    8.32488820820880
C          -7.63168350029632    4.06777092014653    8.28218109440026
C          -6.36757711137200    8.20202518737968    5.72633695477518
O          -6.72181487457818    9.14324271150670    6.39819082925072
C          -5.58560782825052    8.26499197190768    4.45468661194894
C          -4.96446617916268    9.44004753640825    4.14013873229773
C          -3.88779919439021    9.71019642892741    3.26456546770794
C          -2.98991653187332    8.79221552963627    2.80325207759602
C          -1.91691110400344    9.12314383722555    1.95366998682375
C          -1.07737326871733    8.17415354923120    1.44226462335589
C          -0.01910423642317    8.44963277580611    0.56178043819533
C           0.45860093850621    9.69162012141380    0.09891929432072
C           1.56656597982632    9.56591520633299   -0.80600296874230
N           2.14868165215248   10.63778728484199   -1.34551501843298
C           1.66318236310822   11.81372107751398   -1.00687194576207
C           2.30527808104622   13.01145615648148   -1.60849380696259
O           3.23149862349790   12.93836902033814   -2.38629992315369
C           1.73142693270208   14.30340676634242   -1.18813504774221
C           0.71274140880618   14.42111174185813   -0.33076595014556
C           0.04039603985817   13.27124084151398    0.29854182151855
O          -0.87582274061839   13.40173015800422    1.08235873258512
C           0.57059208608311   11.94139571791634   -0.09615259095276
N          -0.01303993064191   10.89072135456995    0.44135648294059
C           1.94450239836506    8.23159325355405   -1.04645337887260
S           0.91782513259237    7.16534811562159   -0.13472695805422
C           2.97411308315219    7.79628875550980   -1.89251748911512
C           3.26359157861398    6.48220819937652   -2.12879949677861
C           4.28224792591655    6.03785839980153   -2.99058831568791
C           4.49813706618074    4.71102683737642   -3.23967165721810
C           5.49923292478055    4.25170448546232   -4.11705251718003
C           5.70428553993808    2.93500521899430   -4.43525532469303
C           6.70389018918493    2.40348202372581   -5.34074013221925
C           7.73502327296861    3.09323857407392   -5.92734958944698
C           8.68665439878239    2.50902109798961   -6.78913707120636
N           9.49105380778592    2.09867181015746   -7.49819892510965
C           8.01596106343644    4.46300875789888   -5.74491677984794
N           8.31813868661694    5.56630734567391   -5.64119320082794
C           6.44835782688030    0.97506521001040   -5.49894027395101
C           5.35681644031798    0.61324541979340   -4.65927535511449
C           4.87000274717195    1.80519127474675   -3.94546240509867
O           3.96835518747196    1.84089534414676   -3.13328209748220
C           4.88646534637858   -0.66641603634606   -4.59481412218393
C           5.49496184122583   -1.66450253075135   -5.38794438026769
C           6.58458767944138   -1.31098248743899   -6.23505404670417
C           7.05201991059943    0.02303226250093   -6.27721730034706
C           7.18137683177808   -2.31350541918807   -7.02627704502745
C           6.72535151152817   -3.60302301113944   -6.98391102206392
C           5.65253426982438   -3.94973653505136   -6.14915279934956
C           5.05058275122149   -3.00099958321900   -5.36779039213202
H          -7.45088155957950    6.74908984011400    7.92810790675811
H          -5.67852699168985    4.04648068717466    4.12878844264338
H          -6.23324002545607    2.01181641216699    5.32151072063041
H          -7.15480806554497    0.87426324145928    7.30153535418276
H          -8.04686877140056    2.18645669782777    9.18551416680295
H          -8.02157508129861    4.64832938543324    9.10540570563305
H          -5.32231343507065   10.28635442857396    4.72099567150651
H          -3.72872455798056   10.74821044752092    3.00387226041362
H          -3.07199507373267    7.75876326389521    3.11715446296616
H          -1.77522306496326   10.15673382870369    1.67250216928562
H          -1.23203591982352    7.13209257404591    1.69523437337235
H           2.19927506468105   15.17371418356342   -1.62846513403499
H           0.32300352676036   15.39001788849153   -0.04878171081927
H           3.53756855615861    8.58356936293791   -2.37589182713116
H           2.66598917735709    5.72410880548374   -1.63592260576291
H           4.90192534267192    6.78233146822473   -3.47489604015207
H           3.87144665582390    3.97432836105066   -2.75775991896789
H           6.12684909922714    5.00509598982641   -4.57610098244821
H           4.05718990757381   -0.91288894405895   -3.94835283194228
H           7.87613402109211    0.25686359211904   -6.93211906959819
H           8.00734668676736   -2.04215143064203   -7.66725751341944
H           7.18906347535632   -4.36353476206768   -7.59412118071721
H           5.30521858208371   -4.97192401619036   -6.12857318402384
H           4.22373753253981   -3.26142663959434   -4.72322699326512
