91
 SCF done       -179.610613910736          0.000520803139
C          -4.29934238146461    2.55591617757019   -1.47424634779988
C          -3.57805505179922    3.30462651777688   -2.36682940463332
C          -4.12897389579476    3.94641159038142   -3.49110853771446
N          -4.53401454037856    4.54448344820463   -4.38395554117891
C          -2.18402699734143    3.49450199395470   -2.25729370038628
N          -1.04131248442772    3.60341149954777   -2.22916057513891
C          -5.63686727527611    2.02432299598759   -1.69238101027804
C          -5.83283519899917    0.91756614527716   -0.81301774337683
C          -6.98301645538053    0.18257059535050   -0.83444386833154
C          -8.00679257521507    0.52955593171943   -1.74476122840014
C          -7.82108429013772    1.64145063601366   -2.61722197699658
C          -6.61834198567901    2.38274487318210   -2.57714880974638
C          -8.85140757720499    1.97545373178183   -3.51974338587609
C         -10.00793096319823    1.24568486813157   -3.56350461877354
C         -10.18951126039443    0.15106704547723   -2.70493142041906
C          -9.21059785217310   -0.19892420122324   -1.81490389694018
C          -4.64550277718389    0.75431937672525    0.04653833277846
O          -4.42852736299282   -0.10302874416608    0.87025699177836
C          -3.78061406296571    1.92721508101064   -0.27134156192750
C          -2.81347638783475    2.32630995451692    0.59180403283744
C          -2.18406486215912    3.60295062785207    0.62330294367184
C          -0.89875184525632    3.89304750868443    1.01747333265077
C          -0.54246650020915    5.23767918203587    0.83240587827911
S           1.08291525469532    5.82787780762735    1.06798404032050
C           2.03079268716579    4.35239031331597    0.55532639341847
C          -1.59179176630730    6.00783798601437    0.33056709855207
S          -3.00866178595112    5.03980004907576    0.09213495474651
C          -1.61729923310279    7.35573457598332   -0.12303662995037
C          -0.78927167258934    8.37681052652555    0.38344754999694
C          -0.75881564935432    9.68355298670795   -0.20683332769125
N           0.06149108126705   10.62086912462627    0.31280712499270
C           0.78006996945802   10.33704139997158    1.34875765068201
C           0.71271625848323    9.05581625760448    1.95857905712712
N          -0.04363367354236    8.12221432731501    1.47821440126857
F           1.42023584913173    8.78448863326312    3.05109220940362
F           1.57502472665362   11.28254713005327    1.83543720724924
C          -1.55092503328889   10.04181455622564   -1.31883371620936
C          -2.43058299429610    9.03903541317599   -1.79023155596486
C          -2.47363341176376    7.73131771920429   -1.18275620522498
N          -3.36376200801214    6.93618218179533   -1.77741915369859
S          -4.06897351693201    7.73205375095940   -2.97671002202720
N          -3.29736924912813    9.12892445582408   -2.80252063625423
C          -1.45202793655733   11.33225301233511   -1.91438651615125
C          -2.15762506201249   11.78904611580757   -3.01174559340688
C          -1.81130735799864   13.08132658514181   -3.41210249674650
S          -2.62191792212186   13.94954032834225   -4.67866594506563
C          -4.23626400203132   13.10011491937614   -4.70787897069253
C          -0.81073310351008   13.64361601422541   -2.60307985039264
S          -0.35709491242885   12.53626938535702   -1.32327186446635
C          -0.22094157296243   14.91677211058805   -2.59356866447680
C          -0.00806576220627   15.75362233441487   -3.66044895026429
C           0.45193523974326   17.12422907691295   -3.58931379567851
C           0.43860726056223   17.92656078090894   -2.47701006770796
C           0.88472054992391   19.26343766765267   -2.46313669227160
N           1.23928874803218   20.35324563731041   -2.38886900773848
C          -0.05996912861681   17.53895199874643   -1.21601895664477
N          -0.47503497610837   17.30436021403591   -0.17109655748651
C           0.84293457936075   17.53232992617800   -4.93413236654450
C           0.57220361150654   16.45609544542672   -5.82737479293243
C           0.02983429191802   15.31793532469524   -5.06668848275935
O          -0.24560291287537   14.21251155869312   -5.49924362371110
C           0.83543230500702   16.54516650099374   -7.16271822654386
C           1.39287006273488   17.73824328093010   -7.67728229360351
C           1.66980121155514   18.81745164506432   -6.79018115161117
C           1.38545796719084   18.69564460102087   -5.40973444292431
C           2.23188608480671   19.99917161909667   -7.31347881690528
C           2.50922346763852   20.11173882587890   -8.64892917704304
C           2.23726216394575   19.04805247242835   -9.52141338590086
C           1.68961656124344   17.88721658624344   -9.04584453200795
H          -7.11022488618450   -0.65686949496460   -0.16717139142610
H          -6.50201653941929    3.22502999557924   -3.24170302143264
H          -8.70591447456180    2.81741257089539   -4.18052698010605
H         -10.78955792497741    1.50736882256387   -4.26082692053587
H         -11.10857812455735   -0.41344007135279   -2.75247662517185
H          -9.34492044782866   -1.04071175572271   -1.15156375304979
H          -2.52700922048266    1.61522475440900    1.35977183720525
H          -0.22443109848894    3.13912122623928    1.37950533902936
H           3.03305972912908    4.70868312205872    0.34034874249659
H           1.58418476392870    3.92650502680424   -0.33693503956827
H           2.07009111768094    3.62808871142919    1.36269477854666
H          -2.87999425804744   11.16861024038060   -3.50679431111942
H          -4.89095530240755   13.74020538051579   -5.29053092982684
H          -4.61778558056213   12.99648054509347   -3.69776780205324
H          -4.14556452189308   12.13298252889735   -5.19210014522485
H           0.14861208522052   15.23049031211092   -1.62414922432609
H           0.62139586596091   15.71568446559675   -7.82018112092413
H           1.61378448299718   19.52696161773181   -4.76148593655836
H           2.43933715890086   20.81568760404736   -6.63732924582230
H           2.94043679881520   21.02124832023196   -9.03985717228272
H           2.46407924723455   19.15228728617645  -10.57208776392233
H           1.47817042458289   17.06442879214295   -9.71329241685917
