103
 SCF done       -201.641362484330          0.000389955751
C          -3.09237250060736    1.65429675510691    1.57053460342422
C          -3.68209802254492    2.03261789531864    0.39293210574388
C          -4.00193101092881    1.13578428070406   -0.64700193318239
N          -4.26037079687673    0.45243157582820   -1.53236288987764
C          -4.10874677744258    3.34664648323828    0.11488273053599
N          -4.50311833095460    4.39239375999984   -0.14607541857296
C          -2.87674051039466    0.27498920445288    1.99686256563517
C          -2.72159069575407    0.25685395607058    3.41402178756625
C          -2.54619315059869   -0.90887373370835    4.10230934191350
C          -2.50390309120462   -2.12919590340860    3.39126054589270
C          -2.63811276491638   -2.11626487634673    1.97256318433524
C          -2.82754296753551   -0.89435853214635    1.28672331756304
C          -2.58417477620085   -3.33982836014340    1.27458241489337
C          -2.41035787317679   -4.52056467787028    1.94389464321330
C          -2.28106424719131   -4.53253710517760    3.34077577475685
C          -2.32712434395691   -3.36244042113937    4.04898539797221
C          -2.76700948875436    1.63662066586239    3.92619651911286
O          -2.72386847974860    2.01205367149636    5.07427920320790
C          -2.81628078590594    2.50491533436122    2.71020357858848
C          -2.51564294900777    3.82232195059939    2.84486742971966
C          -2.13739444214490    4.77525710330181    1.86339861895105
C          -1.60124072095920    4.58302307052026    0.61383381902324
C          -1.28853896445625    5.78140452920653   -0.05945748682635
C          -1.60202785465298    6.92982498975411    0.72277576277903
S          -2.24775881945024    6.47813611445388    2.27164607094483
C          -1.39792444018577    8.21062059547202    0.26544809603261
C          -0.86334823952817    8.36701626971531   -1.01664984746341
C          -0.55630502311702    7.22010382923450   -1.80280607184431
C          -0.75621553575026    5.94083483503065   -1.34230434078270
S           0.07308032458021    7.67210262122764   -3.36332142082609
C          -0.05104731297590    9.37557892564829   -2.95582144375048
C          -0.56350017308195    9.56558183605785   -1.69384311811594
C           0.35540096390157   10.36009475979987   -3.90757629565708
C           0.39657916432269   11.75179766562207   -3.65197523985678
C           0.79963183915763   12.69189115659291   -4.67173204807266
N           0.83092185774422   14.00126865732449   -4.39446223196834
C           0.49990933873215   14.43393741401356   -3.20531525593099
C           0.10696403011911   13.50098900731000   -2.19129356146952
N           0.06776480224060   12.21541003525471   -2.43634776752357
C          -0.24437552682439   13.95829321910355   -0.89596279608645
N          -0.52697821188152   14.34863187418333    0.14298415278612
C           0.53956941784581   15.82274865866697   -2.92879081958080
N           0.55884057248526   16.93710716971448   -2.66511900406777
C           1.17101763934521   12.30765814836563   -5.98009464473320
C           1.14795380288165   10.91930107587195   -6.22934653584886
C           0.75486504388781    9.97822396132885   -5.20642529303484
N           0.81010887857888    8.72149140632375   -5.64887186644371
S           1.29760003375634    8.71340934071132   -7.17321730140475
N           1.46803601112387   10.29604805563486   -7.36626146017618
C           1.53797482089245   13.27853054368448   -6.95729783781638
C           1.87723117265443   13.03262599674816   -8.26826470129694
C           2.19146179708475   14.19588599050882   -8.99680760603771
C           2.08821984585912   15.36735423648918   -8.19301347439728
S           1.59167193584362   14.98259103502214   -6.56215739522315
C           2.35423278844079   16.61980189501098   -8.68954431601427
C           2.73426568529334   16.72945878397593  -10.03231206628009
C           2.82577446054790   15.55582283926610  -10.83715688494134
C           2.56512779025785   14.30015345824116  -10.34016231599090
S           3.29374730731502   15.94763025493050  -12.46320157059456
C           3.38869642111800   17.66439584453411  -12.06294061188185
C           3.05690225340175   17.89796358120357  -10.74998402072683
C           3.73602463851000   18.53014478065871  -13.12880077578283
C           4.07549576355644   19.85125628287255  -13.13660038177303
C           4.38441905385925   20.59096325561773  -14.35406480519997
C           4.04376094359669   20.23889127754396  -15.63316430996440
C           4.35365962931278   21.01452569566018  -16.77080680588121
N           4.58034435711418   21.59313252121558  -17.73589691992844
C           3.30013172068236   19.09774475637143  -16.00411502541558
N           2.67992976202398   18.21158163379731  -16.38986930612352
C           5.04420641239140   21.83123963059610  -13.96932669669821
C           5.03038131877044   21.92465149795042  -12.54944270408925
C           4.37413575432703   20.73618173847258  -11.97906190372904
O           4.15417103653325   20.54387919229705  -10.80210241096164
C           5.57051562639481   22.99099757396397  -11.88980131547986
C           6.16776876990140   24.03082461639088  -12.63632866658494
C           6.19344832083511   23.94133374815948  -14.05834797036709
C           5.62196301201709   22.82634690570105  -14.71301483860365
C           6.79611608812077   24.98276440090893  -14.79308282369909
C           7.34637752473000   26.06145885927087  -14.15598991436581
C           7.32039507756952   26.14849945526588  -12.75595139605310
C           6.74327207464748   25.15511384866933  -12.01233422806783
H          -2.44031269656998   -0.90057603640948    5.17690444018903
H          -2.91862787914040   -0.91299846472138    0.21179112036627
H          -2.68798999164900   -3.32622623728586    0.19953949140420
H          -2.37230279031811   -5.45263308638373    1.40029898297398
H          -2.14456280467786   -5.47326612912875    3.85274895922235
H          -2.22806828941774   -3.36514336262652    5.12458667001228
H          -2.50085348794334    4.17876669478142    3.87112362418446
H          -1.39487102779363    3.61136465077006    0.20043882486088
H          -1.63896858988801    9.07141520701245    0.86823692900225
H          -0.52208595070136    5.08108479443360   -1.94946583739466
H          -0.72013390416105   10.53951657651220   -1.26976390648213
H           1.89498413561383   12.04118910105090   -8.68221454614986
H           2.27772065945862   17.49976609263836   -8.07128505159888
H           2.64133021280131   13.42055148709196  -10.95918875540210
H           3.04855518275583   18.88004774480251  -10.31466707803265
H           3.75691291470683   18.02540875082660  -14.08849913666673
H           5.54358335360947   23.03892021233387  -10.81125987890539
H           5.66334670140508   22.78506656012710  -15.78980231725572
H           6.81232991201728   24.91196802851241  -15.87077521032820
H           7.80494811056456   26.85428245114860  -14.72770612147812
H           7.76004179557954   27.00648886403988  -12.26974667431640
H           6.72011637795756   25.21654172200267  -10.93412409905276
