99
 SCF done       -193.551168570853          0.000388876167
C           2.14803528094054    2.77911658864969   -0.94711309734192
C           1.23128370939389    2.98943469519464   -1.94385692431014
C           1.56610667769359    3.08289712206812   -3.30864531497747
N           1.79321605764319    3.18556387524159   -4.42927265576524
C          -0.15854021303640    3.03319222015593   -1.70863337328512
N          -1.29571508875654    3.01541086327954   -1.55251500284673
C           3.54472066899306    2.40860745038236   -1.14359222318884
C           4.00683715477405    1.75584483647892    0.03717505991321
C           5.27393371148012    1.25689769822409    0.12950002300380
C           6.15287305259810    1.40015090193809   -0.96804910418129
C           5.70063769321364    2.06424450495850   -2.14497898890290
C           4.38001111396819    2.56488196300128   -2.21594833649069
C           6.59011144467801    2.20407951779508   -3.22952276449309
C           7.86427340442479    1.71033027452631   -3.15867806591551
C           8.30854380134693    1.05636111565914   -1.99988210927088
C           7.47097808258793    0.90430595408039   -0.92837995577336
C           2.93143887333515    1.75139381050101    1.04632773397115
O           2.93531681425397    1.24050093724331    2.14274183253570
C           1.84425429956732    2.58218674461929    0.45423986342594
C           0.87924428286855    3.09491478437347    1.26336801676034
C           0.03799146389620    4.21530706389923    1.06610022308003
C          -1.07447705822800    4.52543152473098    1.82856145146024
C          -1.65128127729398    5.73393467136487    1.45372948190515
C          -0.96425401176161    6.38684153529916    0.41843704398022
S           0.39880841116712    5.47997920646468   -0.10475141409294
C          -1.54433048298820    7.61012637416660    0.08074302845392
C          -2.67661382849013    7.88834738472381    0.86070368450858
S          -3.03237832129604    6.63457943326965    2.01495142135257
C          -3.27760905105988    9.10754471407064    0.55673171274282
C          -2.61492716876243    9.76357623374050   -0.46190254135567
S          -1.23051555218523    8.86880689818747   -1.05439114914848
C          -2.94785676996244   11.03629557704105   -1.01581237943327
C          -2.25288613543093   11.59173299900579   -2.08745458578336
O          -1.21929457525268   10.85673622630920   -2.61433802558128
C          -1.37635095249451   10.44251830089596   -3.96580854993532
C          -2.53833217297386   12.88388022352448   -2.60428384432847
O          -1.77963705293761   13.39912806107667   -3.62526347379423
C          -0.40494542184887   13.62410500832256   -3.34086754596231
C          -3.60023143911394   13.66158852743440   -2.14764433625224
C          -4.36015540008915   13.09706027049098   -1.08837333463106
C          -4.02344402989768   11.81721990461890   -0.51454562605736
N          -4.88670594503502   11.58726104607847    0.45399121026930
O          -5.70113709035420   12.63813606781727    0.48827261109214
N          -5.40323437216290   13.55597339561003   -0.42679542480135
C          -3.88546020394402   14.95747447692671   -2.67428885893919
C          -4.86334385140909   15.82957519360970   -2.23703854273139
C          -4.84099778792490   17.02788910363798   -2.94688362839450
C          -3.85093694635519   17.07314833920532   -3.93972326265129
S          -2.93531049115955   15.61306824915098   -3.99078976117122
C          -3.84274673084736   18.29204294991769   -4.61899814209237
C          -4.82389043742873   19.17981697595560   -4.13898037773716
S          -5.77464537726372   18.49435346072806   -2.84787672965248
C          -4.83266126955770   20.41315998984015   -4.77585741040264
C          -3.85888052645712   20.49700316790080   -5.75860298068260
S          -2.93291509949086   18.99467623816145   -5.89170498190635
C          -3.49614816191268   21.51585879603416   -6.66179848802907
C          -3.87489753911156   22.82753869943902   -6.74740323983935
C          -3.39042566254685   23.73200233033535   -7.77940156452475
C          -2.78285945228470   23.38617531992685   -8.95882361598256
C          -2.35025492530911   24.31940351209645   -9.92449018545250
N          -1.96952486762485   25.02287064250148  -10.74819250572041
C          -2.53728942720071   22.07219123531349   -9.41065465087413
N          -2.31765308024857   21.04043718779446   -9.86576524080994
C          -3.73355686628810   25.09139011603789   -7.38067617631630
C          -4.50865263853536   25.02668825055062   -6.18938698949539
C          -4.67514930193248   23.62069077844712   -5.78235559475196
O          -5.32828002511675   23.23084430236927   -4.83600391851590
C          -4.98323858750515   26.14839657933945   -5.57332215853193
C          -4.69299524829590   27.41400659394899   -6.13006005818304
C          -3.91410663247791   27.48843236012513   -7.32070750039153
C          -3.43968937584820   26.30794234062428   -7.93750152944913
C          -3.62822441062203   28.75640038022964   -7.86647861274143
C          -4.08790737736567   29.89689373264229   -7.26622210042297
C          -4.85342533818246   29.82242057334179   -6.09301698162365
C          -5.15011866529357   28.60737280074734   -5.53747952535432
H           5.60355976704832    0.75816149247453    1.02882335449114
H           4.06272481814793    3.07163598055145   -3.11426311562671
H           6.24243663538015    2.70551190686431   -4.12081881941618
H           8.53711145075700    1.82046791609220   -3.99593590094177
H           9.31743341978765    0.67366451845765   -1.96045359288601
H           7.80742424187907    0.40141843431453   -0.03349853514443
H           0.80763415241906    2.63292280963116    2.24393919802561
H          -1.45304304699814    3.88100874990031    2.60046649605180
H          -4.14681497837948    9.51156940673522    1.04012426412341
H          -0.46048358535275    9.91220205335952   -4.21712455135953
H          -1.51323289813934   11.29202256769990   -4.63722024844926
H          -2.22879273951297    9.76391145192429   -4.06058680304144
H           0.10584296895584   12.70673811622774   -3.04427164839182
H          -0.29644101527193   14.37148184037292   -2.54968225949824
H           0.02322571131892   14.00779528022305   -4.26427900934781
H          -5.54253412185628   15.58996370024354   -1.44100198581634
H          -5.49900373341959   21.22261918557768   -4.54242205366884
H          -2.76264906675773   21.18591904303222   -7.38906218693756
H          -5.57084205249175   26.07072550474329   -4.67053268791409
H          -2.84732310106233   26.39908474079220   -8.83388781029591
H          -3.03914331692235   28.80847471432702   -8.77039394656347
H          -3.86386215146856   30.86334331543871   -7.69236639965289
H          -5.20674737616129   30.73246379055352   -5.63158834432351
H          -5.73924626396793   28.54362229792513   -4.63424234959307
