91
 SCF done       -179.925464238631          0.000548589795
C           6.06743940074924    7.37280119445411    5.18320553248684
C           6.15800188114973    7.05307832591440    3.85414159850739
C           6.68994480244455    5.83943036318274    3.37521460267641
N           7.09717568239881    4.86024566000754    2.93588391224255
C           5.81384570819465    7.94910572032159    2.82065147034345
N           5.58890186051742    8.67273176456860    1.95827987165586
C           6.67406449780967    6.62607513015535    6.27828876027591
C           6.83719538858515    7.50631980464864    7.38866630449029
C           7.42083061270179    7.09069704364403    8.55072777207537
C           7.86573883946560    5.75361184321186    8.65904757746167
C           7.69298970323482    4.86661942678924    7.55694778212495
C           7.09049410987232    5.32537723031503    6.36300094587109
C           8.13794747488979    3.53486620972630    7.68072898089098
C           8.72769898596860    3.09817293061281    8.83559185070137
C           8.89730260716061    3.97170099579614    9.92015069568859
C           8.47605531399880    5.27085485706769    9.83355942987223
C           6.28136058848396    8.82924217187819    7.05040530492794
O           6.29206564904270    9.83981360671593    7.71394896157630
C           5.62725584327628    8.64345360667588    5.72173999511031
C           4.70934920175215    9.54610882488956    5.28820212238697
C           3.68613740954250    9.37799992627378    4.32182609758399
C           3.02032744725833   10.39331283608885    3.66060549803046
C           2.03455998138124    9.90886896155950    2.80571195790927
C           1.90032413506393    8.50897987791158    2.83835672665510
S           3.02962086506950    7.79297525411148    3.92535494814019
C           0.91130298463418    8.01675476342280    1.99878227363895
C           0.28575496659606    9.04353918189094    1.30759512203555
S           0.91558060905936   10.63034876024401    1.70366730312660
C          -0.74189300825723    8.93255273185871    0.35434542795206
C          -1.32939847707594    9.99240425835823   -0.34451579891671
C          -2.33567683633966    9.56783597744250   -1.27623595591574
N          -2.99526652209193   10.44834346371877   -2.03040871789416
C          -2.67936109141875   11.71573619366026   -1.87686744764228
C          -3.41308317846305   12.69862294582424   -2.71546259835634
O          -4.27526192199281   12.37319572162519   -3.50241009019760
C          -3.01527587653461   14.10438707623084   -2.52046141379226
C          -2.08090559069229   14.49845682302798   -1.64970617416429
C          -1.33452016701787   13.57491942847350   -0.77723811264402
O          -0.50551849123328   13.96174473143261    0.01804643412194
C          -1.67626431195166   12.13915815117416   -0.94444535225877
N          -1.01903719295991   11.28016866702344   -0.19620359413991
C          -2.52364419697651    8.18179993958477   -1.28605500363831
S          -1.45226724451897    7.42808220041549   -0.14261676216558
C          -3.42579339792275    7.46629715499922   -2.09411057603968
C          -3.64729405941384    6.09724414004881   -2.09066487420383
C          -4.60232400824725    5.73945302057650   -3.03222945426433
C          -5.11520156858955    6.82800213545133   -3.76838776985880
S          -4.40529969966902    8.32546000488164   -3.26624246017353
C          -6.05994020545860    6.47134803811891   -4.72213450018106
C          -6.29211992371392    5.10466395393332   -4.73831029389466
S          -5.31947759853737    4.25773747510569   -3.52703200651043
C          -7.15216886566655    4.28606623792945   -5.49937739728431
C          -7.93407472731929    4.55432546448636   -6.58814789566967
C          -8.76870290806617    3.55281292206996   -7.23628612419770
C          -9.16141946080340    2.34674523647909   -6.71629237857255
C          -9.98849475370575    1.42826932974355   -7.39723813581800
N         -10.65149969028454    0.63417350249597   -7.89505286201132
C          -8.85197612601921    1.85822481729335   -5.42897722724557
N          -8.66975318172381    1.39422311946830   -4.39415566587055
C          -9.19335235938230    4.08894347005605   -8.52308340133257
C          -8.73965501330606    5.43409262183060   -8.62050217010478
C          -7.98904260783375    5.79348849562630   -7.40538587221976
O          -7.51454591537191    6.88296101522158   -7.16060338350876
C          -8.99675417185229    6.20613520409741   -9.71659168660153
C          -9.72662172535526    5.65253611213480  -10.79208914952856
C         -10.17518332593490    4.30276247150931  -10.70748464838307
C          -9.89908079193808    3.53056984379847   -9.55590819054499
C         -10.89571955895719    3.75759298287885  -11.78960509184443
C         -11.16245796072740    4.50824290613907  -12.90210613983614
C         -10.72159509284517    5.83755014273049  -12.98379070165280
C         -10.01949102251167    6.39766671580279  -11.95114946756255
H           7.54316298518840    7.77325149406971    9.37855483552769
H           6.96162230416653    4.63306451131266    5.54543088816399
H           8.00789236307788    2.86716448102935    6.84173279283525
H           9.06749191871200    2.07682622971698    8.91959431160545
H           9.36343533851973    3.61012042083375   10.82445712512856
H           8.60441140428334    5.94786476742576   10.66542256385644
H           4.70989706741172   10.49942488702247    5.80860290249075
H           3.27470035515945   11.43081708408242    3.77460867082547
H           0.65451078966138    6.98042979040977    1.87702782912577
H          -3.54303520860924   14.81684795597443   -3.14015700780835
H          -1.82181876326366   15.54253565401298   -1.53603944988338
H          -3.13484370239745    5.41816360867517   -1.43403063077335
H          -6.55685099170844    7.15583168851407   -5.38456880619537
H          -7.15412871386681    3.25678517814154   -5.15802833366894
H          -8.64427970192213    7.22584010360455   -9.76322848637293
H         -10.24818367806211    2.51082317648290   -9.52530898714897
H         -11.23426686910758    2.73415432340981  -11.72116104658853
H         -11.71499414585820    4.08153373658468  -13.72574849817116
H         -10.94078633141380    6.41534744934331  -13.86921450175098
H          -9.67731914144863    7.42063034435432  -12.00849488422082
