91
 SCF done       -171.861103804324          0.000594417831
C          -5.88983071496833    3.16545125964552   -4.03381188886684
C          -4.80268852130448    3.81669198237082   -4.55346608307604
C          -4.73702176305708    4.29637902553261   -5.87656882891375
N          -4.64729536952162    4.71749545643693   -6.94073329018985
C          -3.59413478925355    3.97452340268595   -3.84335966090043
N          -2.58071199461470    4.05942074607260   -3.31097476787052
C          -7.02793181567857    2.67000476701911   -4.79892312376705
C          -7.63542937736928    1.60833746913632   -4.06525832687937
C          -8.69546616345206    0.90795413260993   -4.56444948607925
C          -9.21059884412913    1.24989851932855   -5.83506326223239
C          -8.62006517632198    2.32276034990470   -6.56387401322576
C          -7.51845037159823    3.02703314187896   -6.02560345484654
C          -9.14814362553536    2.65592501113564   -7.82773155172843
C         -10.20440099838231    1.96104538619022   -8.35081084487697
C         -10.78336897571428    0.90332461593467   -7.63377262048690
C         -10.29726194890136    0.55573364155759   -6.40276035091587
C          -6.94459707697688    1.44774158134717   -2.77316506476411
O          -7.14523011196407    0.62091879181268   -1.91366447329285
C          -5.97031361927590    2.57581642549006   -2.71260582197480
C          -5.42827684091487    2.92779307083240   -1.51962004053986
C          -4.81712023280935    4.14604231799958   -1.12482697543078
C          -3.98956473920655    4.29974634614418   -0.03175517595057
C          -3.58062885351242    5.62326120751370    0.12862828467505
C          -4.12604686635236    6.50638863241627   -0.80610265829329
S          -5.14093534610354    5.68150714172867   -1.92419318415709
C          -3.72773402686219    7.83964871470820   -0.62270735558606
C          -2.87634946961645    7.96078677491554    0.43965136795030
S          -2.55246936077255    6.45087317392239    1.23883431803054
C          -2.26720921909680    9.24069643005341    0.92707795466216
C          -1.16741109808397    8.99604612328340    1.96830728501002
N          -1.59216927760881    9.85917896856568   -0.22992265182250
N          -1.66632957285191   11.00668026242990   -0.57463744605789
C          -2.45833816252761   12.07387250833903    0.08137054850674
C          -3.41805477300920   11.49517258690693    1.05365771301378
C          -3.32311177460250   10.13485738132659    1.46520339431488
N          -4.29993873881756    9.90114133337953    2.29390063886495
O          -4.97735269260866   11.05116941080525    2.40834679966875
N          -4.44685384815586   12.02157321542814    1.65375248495363
C          -1.43026273076108   12.96193070251184    0.79712303034487
C          -3.17878870842776   12.80977332299602   -1.00604643346005
C          -2.95360369835653   14.07167188088070   -1.47052115679511
C          -3.84701919512180   14.40608272266434   -2.50051467575962
C          -4.75094799658054   13.38781470975123   -2.82670614989242
S          -4.48159930957374   11.99331357030138   -1.83881564402858
C          -5.65108670899821   13.71649670476628   -3.83635820877327
C          -5.44542179582606   15.00305735754779   -4.30277100818642
S          -4.11039348015271   15.80192125568032   -3.46010161468168
C          -6.09268345980936   15.79287759723774   -5.27776729382554
C          -7.11108910427059   15.52244255190853   -6.14688099012462
C          -7.64555464318354   16.50542172571440   -7.08113991131733
C          -7.40945567126567   17.85552899167965   -7.09009575029722
C          -7.97162106216670   18.74817510490875   -8.02814147668657
N          -8.38517789303951   19.53204082812753   -8.75805357574255
C          -6.61764254614046   18.57597730784221   -6.17023450129220
N          -6.01436265326519   19.25030708546936   -5.46212407474977
C          -8.54768169285967   15.81190986873421   -7.99217255540813
C          -8.64703225494112   14.45367562426843   -7.58078929385799
C          -7.79466708779390   14.22961146629555   -6.40126696187616
O          -7.69203996019136   13.18555988380746   -5.79024575874775
C          -9.43455093702961   13.55374794937191   -8.23937425786441
C         -10.17041352772538   13.97932183348001   -9.36752247073730
C         -10.07208788792502   15.33623441171156   -9.79062056227160
C          -9.25043261322566   16.24514047618536   -9.08578273271241
C         -10.80804784796898   15.75066203695028  -10.91949966579045
C         -11.60352631072628   14.86871545331045  -11.59877273397398
C         -11.69938377242912   13.53271433859563  -11.18142974806292
C         -10.99850461680061   13.09756965966017  -10.08951828464482
H          -9.13492962539352    0.10017178511766   -3.99829301553824
H          -7.09246609154706    3.83990204927915   -6.59313290364173
H          -8.69661021202326    3.46855200771066   -8.37765348263354
H         -10.59939342773993    2.22191477272756   -9.32126965243711
H         -11.61604318648105    0.36535188223949   -8.06167070425585
H         -10.73870037614755   -0.25781737324209   -5.84585469001865
H          -5.54401033568162    2.19351749900448   -0.72715572546380
H          -3.67638720687479    3.48117183279361    0.58952685844565
H          -4.03942816148061    8.66032388750536   -1.24371410897359
H          -0.38000671574597    8.39284065489372    1.52405634681107
H          -1.58906608730990    8.47692434108441    2.82567266734539
H          -0.74149316379249    9.94123940534741    2.30014137793273
H          -0.96103767951848   12.40750414474661    1.60789598812283
H          -1.92813383887373   13.83518173274204    1.20973748462797
H          -0.66065010488879   13.26473217196639    0.09274549411530
H          -2.19968596349025   14.73743592887191   -1.09732836384256
H          -6.41705113834290   13.06933887459725   -4.22204548918964
H          -5.67735663629601   16.79263052090079   -5.33543385667116
H          -9.49340149312753   12.52904737898535   -7.90355162610821
H          -9.19532267070776   17.26343319614582   -9.43565027871774
H         -10.73144680255939   16.78050369755530  -11.23616156095874
H         -12.16350209557165   15.19573622686575  -12.46206105124135
H         -12.33118056720140   12.85008887779387  -11.72985828186037
H         -11.06822110087663   12.07007677494308   -9.76354535159457
