82
 SCF done       -155.731464328083          0.000568031692
C           1.30444500537433    1.62359544086115   -1.78334027212147
C           2.07654516019249    2.65031774253923   -2.25775213255026
C           2.52193640973926    2.74016063682103   -3.59119516928207
N           2.89399021691413    2.85798106638519   -4.67062337786680
C           2.58273933696084    3.66814271157146   -1.42250066541244
N           3.04512681695472    4.47670377536529   -0.75195562539130
C           0.98935569883747    0.39140651527188   -2.49587294068275
C           0.67856942664066   -0.61579488924004   -1.53493951819261
C           0.36492752068065   -1.88999795338359   -1.91084952486452
C           0.33338818548914   -2.21456700694744   -3.28603557609427
C           0.63215302211790   -1.20870129096508   -4.25051117343137
C           0.96568715176571    0.10040924656314   -3.83247006084116
C           0.58702506030789   -1.54554301944573   -5.61850762295379
C           0.26261816032505   -2.81362744010144   -6.01732788564424
C          -0.03170426263304   -3.80301919244021   -5.06737818440171
C           0.00456112232359   -3.51022857762096   -3.73110203985700
C           0.72989211844014   -0.03372688109118   -0.18108254558803
O           0.58999388346884   -0.59210670899849    0.88195860608870
C           0.91208834616980    1.43098793259379   -0.40297027835314
C           0.55542495087897    2.29820737846449    0.57973653704911
C           0.16712228855488    3.65722604886013    0.49353310770704
C          -0.08114752489153    4.47861863496288    1.57838932401902
C          -0.59353968161938    5.71449219923240    1.19299806908592
C          -0.76207540591818    5.85344691730563   -0.19021944616610
S          -0.26656554715249    4.43302378818605   -1.02609788478349
C          -1.32000459592554    7.07486287918215   -0.57581116079930
C          -1.59898837449966    7.87205760374775    0.50977212752305
S          -1.14711104224802    7.12061844364362    2.02885709259287
C          -2.25750725597613    9.14845123878313    0.49658909260839
C          -2.94531137876072    9.65057353778046    1.61251795929992
N          -3.66097191885676   10.74666976334206    1.56712441536842
C          -3.71090332130823   11.40512807590830    0.40594643501712
N          -3.01268859417553   11.07622766131840   -0.68493602248789
C          -2.30179181682098    9.97559072001682   -0.63788728354074
C          -4.60938751442534   12.52127945951234    0.32390948204600
C          -4.77732076204865   13.38552179286363   -0.73448976296332
C          -5.81683803194407   14.28285144113965   -0.48853668940961
C          -6.44850663782139   14.09102814081075    0.75350784218708
S          -5.71143894747951   12.80576486273982    1.64284651960736
C          -7.53520386988952   14.93201329695037    0.97792803021997
C          -7.75589177332296   15.78382080198232   -0.08861462434813
S          -6.55799427387547   15.56091924998936   -1.36946790901058
C          -8.73922202961037   16.77227276094144   -0.32160706161617
C          -9.95695410894706   16.95675667572529    0.26650965651128
C         -10.88042263871189   18.01694714703039   -0.11124003726879
C         -10.55338032318187   19.19993325296915   -0.71856444471327
C         -11.49182742510827   20.20432709527678   -1.03599487785736
N         -12.20991644051814   21.05304996754451   -1.32182165806120
C          -9.24339560967867   19.60108000236988   -1.05783000255742
N          -8.20568032824248   20.00523184569753   -1.33697477366878
C         -12.20792693601062   17.63848154118395    0.35357788940708
C         -12.08753419330861   16.45290390785900    1.13176973873914
C         -10.67679173829210   16.03000502732822    1.17875266326411
O         -10.23323849933797   15.10118056598178    1.81961529183119
C         -13.17104155791675   15.85206914747521    1.70463668285763
C         -14.45204989059373   16.41545059054915    1.51109574645674
C         -14.58241825838526   17.59759835571209    0.72614333042371
C         -13.44004407905592   18.20230808868888    0.15300905395906
C         -15.86714449808244   18.14472885739413    0.53226612001588
C         -16.97057032023334   17.55440902635754    1.08570099869886
C         -16.84084593890763   16.39089581165151    1.85863913663314
C         -15.60824969162747   15.83434872273394    2.06784544909804
H           0.13839201393874   -2.64157270199404   -1.16926012380240
H           1.17862169217808    0.84863020940302   -4.58040861756881
H           0.81694718337082   -0.78116545854605   -6.34616500574849
H           0.23082281336654   -3.06144439412852   -7.06772008104406
H          -0.28764929308258   -4.79798456969829   -5.39953813412358
H          -0.22098999888232   -4.26793774553497   -2.99499524225125
H           0.43654123158756    1.85320368956191    1.56353557274498
H           0.11215813463646    4.18424424377035    2.59348177321116
H          -1.53633898095731    7.34764218572772   -1.59184558110144
H          -2.92605135901580    9.12711801071898    2.56084702514550
H          -1.73657830053260    9.73901253139196   -1.52982245463548
H          -4.17690186007125   13.34348313646099   -1.62335895272089
H          -8.14465777728394   14.92077427492520    1.86108690573778
H          -8.49385495950926   17.43418307182962   -1.14519430890666
H         -13.05263251902700   14.95455265346495    2.29345690054534
H         -13.57112629788705   19.09188033734983   -0.44257146615641
H         -15.96206477417999   19.04125511265635   -0.06259949132825
H         -17.95028030186578   17.98078479048247    0.93045316650065
H         -17.72228611355494   15.93763923150631    2.28698627621501
H         -15.50181337791936   14.93849695625723    2.66201367451829
