103
 SCF done       -203.674371254827          0.000411591988
C           0.53698350551189    5.16641085003580    5.72021277888793
C           1.31026869103961    6.22182529248778    5.31040926946516
C           1.92654444058333    7.12837354581221    6.19462007237674
N           2.44177198418976    7.89290718978672    6.87870066814692
C           1.65653304501451    6.43632243923694    3.96077987147675
N           1.99947901978108    6.59956566392462    2.87711554265731
C           0.39134565069948    4.70471819419791    7.09575441310430
C           0.00612457682577    3.33176713892640    7.07010535478402
C          -0.16714608275414    2.61634955816237    8.21940263222472
C           0.02664463193524    3.25554329512936    9.46521407803819
C           0.39461887036198    4.63175932296473    9.49626069191578
C           0.57766179314319    5.34622439953158    8.28951617593747
C           0.57513892277776    5.25800578205332   10.74601071010108
C           0.40418356009168    4.56012561736164   11.91057291012239
C           0.04387027871387    3.20484425954452   11.87919910958793
C          -0.14018529213647    2.56660292322264   10.68269390494150
C          -0.16697953518406    2.89921627176875    5.67050421796371
O          -0.43183845091880    1.79309952858209    5.25567123218850
C          -0.01281372945185    4.13979900369851    4.86233752194615
C          -0.45932289768677    4.17351358691411    3.57672601023838
C          -0.82046522414818    5.29169528655152    2.79158041148325
C          -0.95122268376116    5.29338902734402    1.41075234070998
C          -1.37465400131015    6.52700486202128    0.93288612875737
C          -1.62358944117479    7.47728106420826    1.95854310621455
S          -1.29243233659622    6.82975881864748    3.51637176037954
C          -2.05669346926459    8.64137583604206    1.33688223703403
C          -2.05294268760955    8.37349541328579   -0.05840613079094
N          -1.64831077071911    7.08520427960994   -0.28678033702504
C          -1.45804759176436    6.45538462004178   -1.56336781643481
C          -2.45612029590857    9.45671713978138   -0.82673044727537
C          -2.77149425042033   10.55702717849161   -0.03881366818053
S          -2.57204075893465   10.25326191952347    1.68021943693540
C          -3.19825742015771   11.82940108294335   -0.50455394077860
C          -3.47541456675346   12.89073194397819    0.38571902955393
C          -3.86393371386642   14.19575961854074   -0.06131795471332
N          -4.10331556314972   15.15842652572437    0.85074569436716
C          -3.98333239400563   14.89643453737152    2.11117772147652
C          -3.60178307800484   13.60270300210537    2.55392532377537
N          -3.36244801052440   12.65514431350860    1.70726524340144
F          -3.48662822050821   13.32840303512875    3.84916945181442
F          -4.23366532816903   15.87084954286869    2.97924676859579
C          -4.00879083980406   14.52320958573032   -1.42749316886667
C          -3.76508874567982   13.45700922075738   -2.32806000674477
C          -3.36590756743232   12.13988767047935   -1.87681908805367
N          -3.18770590747816   11.30591839494414   -2.90194090918856
S          -3.48490911090893   12.07788330334129   -4.27727881548160
N          -3.85554264555013   13.51097723478503   -3.65734206429635
C          -4.35775917141004   15.83509223182250   -1.84866074684548
C          -4.54744411265945   16.25497024242130   -3.15957135079172
C          -4.85085842529077   17.60775266957886   -3.22561998612350
C          -4.88961676968706   18.24016084892736   -1.95417270724102
S          -4.56460306657956   17.12548474141840   -0.67489209815745
C          -5.18409323401065   19.57746080842702   -2.18988335391936
C          -5.32139729263067   19.72696856103166   -3.60072553812489
N          -5.12549257352295   18.51668770597733   -4.21142459225074
C          -5.14902765750139   18.25884499947881   -5.62415794263131
C          -5.60965263331379   21.01973606841411   -4.00482720544216
C          -5.70316228907864   21.88802785985208   -2.92293545960232
S          -5.41483853491321   21.06959565579546   -1.37488715329691
C          -5.94409624230812   23.26943540100978   -2.84807693713662
C          -6.29504298741450   24.18737797130359   -3.80663489317895
C          -6.46037343343768   25.60341477721695   -3.52218768779659
C          -6.02194742208982   26.28109664811575   -2.41281498723572
C          -6.20469997714866   27.66553036677150   -2.21427054469957
N          -6.32394318655234   28.78455286164380   -1.98508219084488
C          -5.28793991682876   25.73417233534098   -1.33918047547663
N          -4.66537832608850   25.38631720954588   -0.43840773579089
C          -7.10694428148246   26.22185720693721   -4.67406020377879
C          -7.23740113155050   25.23789626441312   -5.69263410148965
C          -6.69678922125555   23.95435600383310   -5.21198205227311
O          -6.62828301581602   22.93265785381436   -5.86954421845246
C          -7.79751201427265   25.52083462024090   -6.90459960777494
C          -8.26999320669781   26.82846986779635   -7.15585998945809
C          -8.15186898128579   27.81780895980085   -6.13800356330390
C          -7.56209489224390   27.49447589543240   -4.89386782192024
C          -8.63102757769389   29.11793865976518   -6.39663075900257
C          -9.19867366860677   29.42830650374292   -7.60245118240370
C          -9.31391175468767   28.45334689132320   -8.60430738962244
C          -8.85913358272677   27.18118813277004   -8.38573612344951
H          -0.45008229778408    1.57482376246059    8.18091283114972
H           0.84855895323021    6.38962760730132    8.33752585115245
H           0.85567555805646    6.30087923470296   10.76482670251007
H           0.54615774438927    5.04882706565193   12.86288938332357
H          -0.08764603935437    2.66916307529060   12.80751588646067
H          -0.41819712449024    1.52310934690616   10.65236170810218
H          -0.64115659860251    3.20317274410120    3.12366222232710
H          -0.70543847840334    4.43845194467541    0.80770246412654
H          -1.96231335245225    7.04202230454148   -2.32818629017410
H          -1.88006568968396    5.44940337190030   -1.54833513071013
H          -0.39480039364300    6.38696195473112   -1.80966468867283
H          -2.52476415727832    9.48779497727049   -1.89739315667901
H          -4.45483501496612   15.58517804489314   -3.99296772603375
H          -5.70824456137186   19.04892407580477   -6.12170309867429
H          -5.63352351770273   17.30083961871323   -5.81449290150347
H          -4.13559932668208   18.22850364681175   -6.03464215858175
H          -5.75435526886267   21.35091902791140   -5.01611321591524
H          -5.84887903879002   23.65634336298514   -1.83987974552809
H          -7.88062494597398   24.75578969355698   -7.66246248804385
H          -7.49258835484433   28.26539814933496   -4.14329114423334
H          -8.53872973065564   29.86552948222210   -5.62242292312458
H          -9.56199735545552   30.42748743195110   -7.79095547895106
H          -9.76490644887594   28.71512063777243   -9.54992553767043
H          -8.94532033717168   26.42599429353902   -9.15353823799217
