91
 SCF done       -191.258421584615          0.000556923620
C          -3.24484129497975    1.59757831764174   -5.61494497702652
C          -1.95165789687564    1.14612591054766   -5.59363663431666
C          -1.37698844824960    0.35835920772962   -6.61432570897270
N          -0.84679060737617   -0.27729761877951   -7.40968295356456
C          -1.02021860512184    1.34728708462812   -4.55218699348351
N          -0.20984624490892    1.44127323428192   -3.74394303344168
C          -4.22581922546323    1.28391530334100   -6.64560131355171
C          -5.49628135808775    1.76057798249379   -6.21680228420904
C          -6.62195035767318    1.59868978894256   -6.97238119337715
C          -6.52399480607025    0.94833875363974   -8.22246481540982
C          -5.25337673021224    0.47914228254656   -8.66530757356383
C          -4.10700386279560    0.65516893807285   -7.85713304016249
C          -5.16508825403484   -0.16131586786910   -9.91814873835889
C          -6.27730655130019   -0.33281954449690  -10.69650244315333
C          -7.52809346344981    0.12779342791250  -10.25865855605921
C          -7.64892787707361    0.75449122477646   -9.04801962103556
C          -5.36329774976211    2.41759882751850   -4.90625819746987
O          -6.27261948614922    2.87355153572037   -4.24561688712319
C          -3.90915718169276    2.40013206176222   -4.59504268976846
C          -3.23611362804678    3.09754865555551   -3.63411115031664
C          -3.69477122138935    3.94139033253987   -2.59719334501213
C          -4.95065170269872    4.23958916632508   -2.10368945404160
C          -4.91488935276563    5.15614374346159   -1.05682501672255
Cl         -6.32946893527315    5.70642969049366   -0.26307673433682
C          -3.63669525318668    5.59155482621866   -0.70820833100612
S          -2.46152815329456    4.81196728530645   -1.71171758288722
C          -3.27824056763269    6.54272483269275    0.28128775030742
C          -2.00405538217001    6.98534706252789    0.62023043165838
Cl         -0.57793627819074    6.39283845243969   -0.11543945276430
C          -1.97968735250403    7.96811368077328    1.61380962767989
C          -3.24073849836457    8.28919702027620    2.05630056578779
S          -4.46889229074360    7.37190316935097    1.23852839386934
C          -3.64536200667800    9.25755409016188    3.02163885872382
C          -2.96453294561037   10.05127418758467    3.93651141074254
C          -1.51169961964470   10.07403176205823    4.20542429108212
O          -0.67589117002031   10.02743760929198    3.34673201434580
O          -1.16285836053619   10.11954763202232    5.50126115651411
C          -4.01436312696944   10.79562842456875    4.56808865344721
N          -5.18032401860576   10.43551530552552    4.07512461335465
O          -4.96253725484447    9.49143336612088    3.14559037876321
C          -3.94895647970295   11.86430833536576    5.52963565579763
C          -5.02210308419220   12.39545034102501    6.20055433756750
C          -4.66871363218047   13.48679752887485    7.00200672454370
Cl         -5.80618959047884   14.33444821244962    7.96070516863329
C          -3.32218955649518   13.81915897906944    6.94678345216967
S          -2.48700758564661   12.73320875786464    5.87600478451035
C          -2.64425238146533   14.86692268289635    7.62162023653438
C          -1.28927447236401   15.18980966417119    7.56009834070742
Cl         -0.16718732833352   14.31136374197312    6.60565018578547
C          -0.92012666647366   16.28568782585079    8.33507173135897
C          -1.98278302046527   16.84047257762567    9.02230732067411
S          -3.46125098807101   15.96888026997298    8.67636028055186
C          -2.10415960862994   17.94315645459222    9.89745290151009
C          -1.17144050811048   18.78799915317585   10.42711684606551
C          -1.50336485024217   19.89163834889894   11.32063759914266
C          -2.74793095998739   20.40841523141946   11.56961923384219
C          -2.99016895404119   21.49361154526283   12.43963182046622
N          -3.25953966370599   22.36856369963225   13.13215954097460
C          -3.96304004997803   19.98468521241050   10.98972227119096
N          -4.99568420542177   19.72438827828656   10.55903336297838
C          -0.25816120102439   20.41369285491107   11.86956041658318
C           0.82675730179549   19.72274148296784   11.26142536050469
C           0.30974617026980   18.72074010608246   10.31613617280653
O           0.98389726661089   17.99900784344365    9.61150121944096
C           2.12742425791221   20.00321845819571   11.56762823150234
C           2.40868083117106   21.00555921285732   12.52205540359874
C           1.32845893190073   21.69734210371963   13.14264987870949
C          -0.00774662811573   21.38653994457678   12.80166952828437
C           1.61946358220166   22.69350881846251   14.09695927678302
C           2.91405090575341   22.99371508728596   14.42286719561637
C           3.97670454561898   22.31199620792554   13.81096558454014
C           3.72950165443833   21.33920079060756   12.88062865542608
H          -7.57496895581757    1.96568970794791   -6.62121414231500
H          -3.15982205425365    0.29294163580367   -8.22353150179602
H          -4.20019986600319   -0.51557923466492  -10.24997081628929
H          -6.19944586299595   -0.82485938406039  -11.65436586035760
H          -8.39521569196087   -0.01608005230494  -10.88571805097012
H          -8.60930790842989    1.11158205044097   -8.70603761477737
H          -2.15388517438609    3.04232560440084   -3.67331242563077
H          -5.85611452878067    3.81385589182828   -2.49594925657210
H          -1.08135470285915    8.43758535115274    1.97024281568550
H          -1.91579340511610   10.12019005031729    6.10707095966964
H          -6.01888274856042   12.00794944996485    6.10905817102200
H           0.08447343842990   16.66223391075982    8.39879277133381
H          -3.13078800574637   18.11744160048434   10.19909596067907
H           2.93115841641776   19.46476881599963   11.08770720495673
H          -0.80077370808528   21.92601415800727   13.29401896626209
H           0.79804991515466   23.21639448308510   14.56440838696310
H           3.12662738076311   23.75879753849261   15.15440001660551
H           4.99201551053730   22.56146384912682   14.08059178713967
H           4.54348103944707   20.81091367533027   12.40614448434306
