95
 SCF done       -183.602910656116          0.000313490286
C           0.15269517988662    5.01980786696573    5.01543521378444
C           1.01279804064368    5.97825606896827    4.54246243160561
C           1.11748393959773    7.27708828509973    5.07090489695294
N           1.21270945998319    8.36216133865659    5.43610445564571
C           1.92332079789668    5.73489622228827    3.49295920259911
N           2.72039378198417    5.54019099206332    2.68967663157431
C          -0.56083215940756    5.07011891016607    6.28538841807283
C          -0.90289757425882    3.73740820413698    6.66080186197570
C          -1.54595547817551    3.46858070630890    7.83383485123140
C          -1.89231898227768    4.53776644073908    8.69173525842390
C          -1.56481544403340    5.87213292494723    8.31467366227229
C          -0.88862449345248    6.12092022370830    7.09782739368635
C          -1.92316437965513    6.92825368281664    9.17667391964276
C          -2.57111212769779    6.68118512822346   10.35622184434514
C          -2.89187850775483    5.36712246813559   10.72742910316151
C          -2.55917003467450    4.31872347534564    9.91312757735894
C          -0.47306842390906    2.80289145512638    5.60014058255909
O          -0.55323714106895    1.59531129049314    5.59488533444632
C           0.01386935162370    3.67463607874045    4.49922708456370
C           0.11316436689236    3.19345516090616    3.22724808487787
C           0.10202881448830    3.94031094658612    2.03087011847520
C           0.53901148877451    3.52295937237164    0.77723564970506
C           0.37503093734691    4.49848363922588   -0.22919511537124
O           0.79949427319325    4.40342090160833   -1.50904143047027
C           1.06827916571071    3.09907155427643   -1.97341548454132
C           2.06814860698672    2.36631674509995   -1.09312772139972
S           1.31099116693417    1.97798553175611    0.52027565404755
C          -0.21725584218878    5.66017216683895    0.24824903146678
S          -0.54261862835748    5.55474763411815    1.94229308728257
C          -0.49895010562222    6.88608259207348   -0.43421174213319
C          -0.92501754593481    6.96662099647264   -1.77591621637735
C          -1.14360476750714    8.23532742743267   -2.40879436512336
N          -1.50044647223552    8.27614581181516   -3.70702782074425
C          -1.74184734316501    7.16223540988792   -4.33184886715553
C          -1.64727948310850    5.91870825761715   -3.66664818124488
N          -1.22561653170925    5.82902363891712   -2.43955648110631
C          -0.98851923721056    9.46830704079093   -1.72801163216025
C          -0.64828385050021    9.37984033504233   -0.36599132930541
C          -0.41652143807380    8.10295540327644    0.26608159234988
N          -0.14609078269034    8.23685661182663    1.56843757970947
S          -0.19573898896635    9.78818344399516    1.95713592242508
N          -0.56457688179707   10.38022057461546    0.51709580409000
C          -1.27922781346167   10.69150314305787   -2.40739716248428
C          -0.72285881482929   11.95527638677704   -2.22575610152384
C          -1.31967930459153   12.91573008692479   -3.04875238914465
O          -1.00887799628865   14.22477777267054   -3.14435825714373
C           0.23033003424587   14.63413752875929   -2.60268420644828
C           0.44196842234625   14.12851938313406   -1.18668706787199
S           0.65148546145208   12.31478964189718   -1.19383230540850
C          -2.36928035596596   12.40291118715930   -3.83996166306215
S          -2.52384878325203   10.68218381156682   -3.61382552519525
C          -3.10608512254033   13.24052379581157   -4.68385877542250
C          -4.14697033605621   12.94084341321270   -5.52693415239160
C          -4.86817836405255   13.88450740784850   -6.35571996206068
C          -4.62201941861988   15.22725087907769   -6.49794685965551
C          -5.37555842133512   16.08294583525582   -7.32765530439895
N          -5.94534025518552   16.83509927971447   -7.98249849272118
C          -3.59639782481966   15.95709504232454   -5.86225160780561
N          -2.79372133125854   16.63722648299910   -5.39980205888179
C          -5.92691719400408   13.14705418789917   -7.04199007276643
C          -5.84314028015452   11.77706729558690   -6.66189006330426
C          -4.72909356861461   11.60789116386739   -5.71489345213033
O          -4.37603904152410   10.56202165202594   -5.19575488362847
C          -6.70824599981597   10.83762513106889   -7.14162255592850
C          -7.72251698744401   11.23257199054631   -8.04304439226613
C          -7.81490708761884   12.60023095616181   -8.42905824154949
C          -6.90132590123185   13.55048033506256   -7.91505084547107
C          -8.83090382675239   12.98419653800596   -9.32718020127292
C          -9.71469073914482   12.06313422366530   -9.82082524477173
C          -9.62298369336272   10.71664439706470   -9.43939488022888
C          -8.64763331225347   10.31026430838638   -8.56939681511161
H          -1.78955237868865    2.45242672649785    8.10650491261488
H          -0.65600729094347    7.13976496133004    6.82865234184344
H          -1.67147102334083    7.93816922207463    8.88746566041988
H          -2.83974103127179    7.49727807757667   11.01032892364429
H          -3.40395961757139    5.18965555522307   11.66141171775396
H          -2.80396531693457    3.30468066942279   10.19388352414167
H           0.12560674393598    2.11298604240340    3.12025027587153
H           1.47541187668560    3.23798775722969   -2.97817192010644
H           0.13513521649982    2.52351721443240   -2.04009495461656
H           2.94940980489560    2.98265141243378   -0.91360989574128
H           2.35940335109934    1.41545523362370   -1.53336489013552
H          -2.01038599325597    7.23616412965812   -5.37609172106290
H          -1.90573004960346    4.99195936564802   -4.16121434949635
H           0.19470936693246   15.72638229441619   -2.62576986227601
H           1.04893736316009   14.28696176983101   -3.24696965042193
H          -0.41193948468607   14.37250294760014   -0.55450908574478
H           1.35274075919175   14.53951463475721   -0.75813569585666
H          -2.79105100696320   14.27553743212747   -4.62445144789742
H          -6.62209907307630    9.80558751167053   -6.83521654342973
H          -7.00137401114891   14.57766197664750   -8.22722809205985
H          -8.89773071796400   14.02236053954630   -9.61794486930945
H         -10.48975959704660   12.36771167788366  -10.50809721466348
H         -10.32873237560076   10.00294658615333   -9.83776616526647
H          -8.57195438479505    9.27450004471815   -8.27152331940474
