119
 SCF done       -225.500621909434          0.000272600988
C          -7.17523691629781    4.65423579538320    4.76365885327447
C          -5.84329311014985    4.43198542640895    4.52283532450064
C          -5.24930409445265    3.15470367640294    4.52536931022707
N          -4.72312815369826    2.13466932694796    4.48641907321211
C          -4.89902071754219    5.46083449795550    4.33054718382486
N          -4.08216408531487    6.25925948216623    4.21806416819059
C          -8.11605542655106    3.65346029791085    5.26021589035729
C          -9.21956167839893    4.32951937998178    5.85784282728459
C         -10.24246955055974    3.64891679711074    6.45154754612788
C         -10.21549405511487    2.23582540178363    6.46228238542683
C          -9.12559491773938    1.55357596943947    5.84885257712754
C          -8.07404147625189    2.28570112690967    5.24994588018108
C          -9.11607679899348    0.14409627470974    5.85786127116921
C         -10.13090314606039   -0.55960616719477    6.44717286775203
C         -11.20228726673856    0.11309407336670    7.05318907145496
C         -11.24328280494721    1.48097515700860    7.06081953742074
C          -9.04492335128180    5.78422190219772    5.69377661933464
O          -9.75169478386862    6.67215368157079    6.11234176515949
C          -7.83362657917545    5.93900294498277    4.83787928095926
C          -7.61923664841684    7.13652975345743    4.22322595121753
C          -6.82643180486989    7.44972032589500    3.09765104996257
C          -6.25549728068235    6.62008582797890    2.14551087209532
C          -5.58216204464489    7.29801652219315    1.13139835849117
C          -4.79002251915756    6.58982169921669    0.12037709658046
C          -5.35886262554391    5.53305349987020   -0.60421091638202
C          -4.59373099500548    4.84335144030469   -1.53800240551385
C          -3.27091892549676    5.19253685996586   -1.73125107348829
C          -2.68740832242426    6.21887408808272   -1.01250687418090
C          -3.44173639074095    6.92332642511206   -0.08174086118110
O          -2.96363792261400    7.95623205325532    0.66468553667988
C          -1.59805259215737    8.28302866945006    0.57743345004218
O          -6.66803406758585    5.26943521970138   -0.34218086048385
C          -7.32299505750060    4.28289528505128   -1.10235583312681
C          -5.64736811088400    8.68624882943069    1.29026266742077
S          -6.50959618386957    9.11848176701507    2.72125545980330
C          -5.09691047906689    9.69643537325110    0.44653928532776
C          -4.70978241861567   10.95585525931441    0.95129047194192
C          -4.02054653867195   11.92101580243878    0.14550885594685
N          -3.64901569456911   13.09549732536832    0.69610057219176
C          -3.92097576028689   13.33701218345703    1.93534422000701
C          -4.60294873469307   12.37733200883084    2.73435812559018
N          -4.96976939513650   11.24091717579619    2.24445830730835
F          -4.88206835906003   12.62900745454027    4.00844252028141
F          -3.54292129201270   14.50446874050056    2.44272253419518
C          -3.70251586400456   11.69667445728784   -1.21165403106828
C          -4.16520308293558   10.47137875692137   -1.74516462420384
C          -4.87650679804365    9.50803107312604   -0.93455745194717
N          -5.28662532088179    8.46483879234873   -1.65810650785305
S          -4.79410836780604    8.64020836066030   -3.16855528269097
N          -4.05028738652332   10.05429113126015   -3.00825625960754
C          -2.98378273755248   12.65622991507997   -1.97916794710529
C          -2.66018593332097   12.57400848239496   -3.32544068698570
C          -1.90163693103006   13.64219990192876   -3.80398119652449
C          -1.56149591349980   13.76861421875958   -5.22404014692833
C          -1.95795127282658   14.94183199322939   -5.90214634331573
C          -1.71537479446294   15.09297246792396   -7.25639666833439
C          -1.09846316069602   14.06945222562427   -7.96079064082887
C          -0.72244497120390   12.91330466098770   -7.32260269125495
C          -0.93671492651203   12.74642142301444   -5.94967753658622
O          -0.51558697011375   11.54692358756424   -5.47569105767286
C          -0.04129032523930   11.38378698295489   -4.15418179818541
O          -2.62153015496010   15.86429091793440   -5.14449916419546
C          -3.10969554983049   17.03077196623698   -5.75970588207835
C          -1.65572121067268   14.59669561440787   -2.80619942196523
S          -2.38964747248613   14.12709901882346   -1.29069642024158
C          -1.06461647584606   15.87372899717279   -2.86427833096140
C          -0.10429435511541   16.33924380662657   -3.72349444201946
C           0.22993304742004   17.72940032848242   -3.94120819570297
C          -0.52146039988759   18.81241186418623   -3.55863622559139
C          -0.17775735570073   20.14908238277131   -3.84360736268235
N           0.04943756265357   21.25661355002394   -4.04576149797050
C          -1.76338399924618   18.74046834514128   -2.89538060378673
N          -2.79938945989093   18.77094644130876   -2.39987988745337
C           1.42998842246837   17.77919833038596   -4.76942851139379
C           1.79684129694791   16.44566796669779   -5.10794515611531
C           0.87121500530511   15.50495930246785   -4.45504364319090
O           0.97523021746417   14.29478087118544   -4.42527685165957
C           2.87765871389030   16.17192542107427   -5.89400051516086
C           3.66022102123482   17.24169330051791   -6.38508519803903
C           3.30773391422644   18.57814346356975   -6.04058294570445
C           2.17892204641737   18.83027251667660   -5.22617598605705
C           4.10386124135995   19.63616727319825   -6.52358152747045
C           5.19602176287632   19.38855500919902   -7.31013491749209
C           5.54139525326045   18.07236538250586   -7.65004661464872
C           4.78888578804086   17.02205334927428   -7.19847714376369
H         -11.06369125428067    4.18127065998342    6.90793006825853
H          -7.26382396496547    1.74353195365834    4.78757689771761
H          -8.28701524803621   -0.36962210649634    5.39350078643972
H         -10.11312593875342   -1.63922831794462    6.45043863216460
H         -11.99471152074121   -0.45768111114117    7.51380188762595
H         -12.06556001419097    2.00477828389569    7.52598670514318
H          -8.21399598198142    7.95539012200285    4.61771105517487
H          -6.34639093863531    5.54987879232318    2.15696365066603
H          -5.01475620018700    4.03469312350733   -2.11207090352984
H          -2.68052395449978    4.65228859197816   -2.45571620739254
H          -1.65142730130932    6.46161833878152   -1.18273296569629
H          -1.44303641762195    9.08005510047074    1.30300446681167
H          -1.33250071832995    8.64817543349737   -0.42120335794276
H          -0.96321404521583    7.43134579064189    0.83755438907182
H          -8.35312013221741    4.27803355836634   -0.74884131251083
H          -6.88359352983113    3.29246797473859   -0.94451325890775
H          -7.30913149094322    4.52228396426017   -2.16999228860295
H          -3.00374994933218   11.76599317918386   -3.94606379920132
H          -2.01232048904577   15.98959324956042   -7.77509460367210
H          -0.91224422091821   14.19015152909664   -9.01710210875489
H          -0.24427155992307   12.10765384186424   -7.85576249834476
H          -0.82533772730567   11.00106801024336   -3.49364886508974
H           0.35629972584297   12.31676801225003   -3.75966973042892
H           0.76096732186692   10.64615525557719   -4.21845696954497
H          -3.83436804912354   16.79867577793566   -6.54620281741227
H          -2.29969440448489   17.63704227243603   -6.17998103409038
H          -3.60255210543544   17.59155762260267   -4.96652224323276
H          -1.43940489102292   16.56600969023001   -2.11823048535710
H           3.13259226475121   15.15143769704415   -6.13851493803048
H           1.94253375909908   19.85253496118256   -4.97624635839413
H           3.83318731906290   20.64810947780982   -6.25985599740248
H           5.80001012046307   20.20609888697440   -7.67436216427954
H           6.40712733218051   17.89453154392377   -8.27046439495525
H           5.05058918187622   16.00604035531499   -7.45586986699898
