140
 SCF done       -248.528170346468          0.000382948778
C           0.08719180634259    1.40315588132012    1.57074166424232
C          -1.17384859861259    1.92154186395156    1.70733785186222
C          -2.31124729094107    1.40137980940520    1.06047021030033
N          -3.26244204380257    1.03855685402357    0.52921098437559
C          -1.48371503685183    2.98025581799730    2.58740357331407
N          -1.78952774711722    3.78731985274288    3.34460794407010
C           0.41385239846306    0.11498533776424    0.97193874127177
C           1.67888401042654   -0.30788671407917    1.47694477914407
C           2.21852482732392   -1.51393242055712    1.13463584181360
C           1.51131298602090   -2.36039185570033    0.25078352468571
C           0.25496185200440   -1.93527169386864   -0.26983282838231
C          -0.28352438678944   -0.68333410161822    0.10658634871672
C          -0.43772459211012   -2.78827224874075   -1.15279730153371
C           0.08109669947771   -4.00493364497139   -1.50288183486646
C           1.31741071607486   -4.42340698032972   -0.98885138338985
C           2.01701620066576   -3.61862715057060   -0.13114380549314
C           2.22930791860543    0.73949887943133    2.35824441197655
O           3.25452235446774    0.71307715787288    3.00046337458907
C           1.27837119427756    1.88024175795283    2.24292914572410
C           1.65537723194237    3.12521283965703    2.63352547952414
C           1.08871604401967    4.37476688340426    2.26751189603909
C           1.20081941151577    5.54766804650484    2.96728312837317
C           0.51166655628939    6.63325476494565    2.38501067153135
C           0.38710660857522    7.95020152494217    2.87783916213299
C           1.12431880207958    8.37827483636382    4.04603519925010
C           2.42000659928898    8.08107925888557    4.37159658189742
C           2.84242654405020    8.67216052681011    5.57735383510231
C           1.87474456904230    9.41462075462394    6.18233685538443
S           0.41193686723959    9.41156906278890    5.25203810785072
C           1.95429545202650   10.16913317967340    7.46027119996926
C          -0.45573255601623    8.80013799197649    2.16997846559930
C          -1.10175660776217    8.42057045630971    0.96776765773722
C          -0.93299745634587    7.12260057441271    0.43929042450066
C          -0.14258051057029    6.25917969393294    1.18387377835287
S           0.18050993383304    4.59588378367861    0.78129855406945
C          -1.55692103573789    6.68640112351294   -0.79377119309180
C          -2.15082591840060    5.48440990594557   -1.05588875998710
C          -2.61857939911108    5.36659812020764   -2.38002764300165
C          -2.37654945953162    6.46668140074216   -3.14204274109816
S          -1.56752156039941    7.69244212126520   -2.21889916563282
C          -2.71336831319393    6.69930270612223   -4.57071370069484
C          -1.90929241322973    9.46308478417294    0.46335272035733
C          -1.89335298504116   10.59747872668376    1.22942656959552
S          -0.86707243814306   10.43272136739305    2.62921237559690
C          -2.63943162753499   11.80525121224382    1.00748298945394
C          -3.37632714348717   12.04260251462619   -0.14428073918681
C          -4.14694156238724   13.18750877304740   -0.30784552940230
C          -4.23997122844281   14.16356429621758    0.67440081967522
C          -3.47468853302785   13.96797232729572    1.85757014607275
N          -3.52171295223747   14.88923388728282    2.83063318837217
C          -2.80969404658204   14.70102821236899    3.90906166011999
C          -1.99151057138608   13.56578229738529    4.05402077012924
N          -1.93137109263200   12.65129738943076    3.12382746898507
C          -2.66718162069321   12.80996323697756    2.01425166794265
C          -5.08504487129011   15.32000982989334    0.55914888904289
C          -5.80395532075350   15.72030284141193   -0.53494196468702
C          -6.60060278733225   16.86415984592287   -0.30894941730574
C          -7.44640167938396   17.52154624286918   -1.22859240804175
C          -7.45720830161290   17.15404883185517   -2.62868545747410
C          -6.38528678958170   16.85027802342898   -3.42168794769674
C          -6.74180423287600   16.55100846451018   -4.75129105333589
C          -8.08169298069144   16.61674900863795   -4.98021572186729
S          -8.93835710453716   17.06681446188375   -3.54193946714395
C          -8.81887143885781   16.36493235689948   -6.24552138523697
C          -8.24147634801684   18.53674054169851   -0.71243822013629
C          -8.17297369572347   18.96436186647517    0.64214846967594
C          -7.23988045296069   18.37614593649752    1.52999036918620
C          -6.50197402129586   17.30924811636518    1.03279670661481
S          -5.33901195797807   16.36516580583572    1.93299799006991
C          -7.08417886975590   18.87433881567089    2.87692941446197
C          -7.11142892030653   20.17492250513141    3.30372915236826
C          -6.92618622587705   20.31085660785219    4.69168258326400
C          -6.76512439771160   19.12176356075152    5.33550555990279
S          -6.81855042509897   17.79645564901197    4.22032742623473
C          -6.56264794095405   18.87627925085533    6.78728585804955
C          -9.12916298086930   19.95293949317078    0.93735735742624
C          -9.89482811708281   20.32660591193853   -0.14173688164904
S          -9.42599572846884   19.44776463141350   -1.59753034055430
C         -10.94775925513112   21.25509108569393   -0.28944204556664
C         -11.65566886938826   21.97803407122164    0.63067034744034
C         -12.74534689015234   22.87265270914164    0.26724055276175
C         -13.00656470604654   23.39328400035172   -0.97358672257019
C         -14.07542319552985   24.27217051083784   -1.24783644259991
N         -14.92503634923228   24.98656437242458   -1.54181540140491
C         -12.23958835115550   23.18608749158821   -2.13992063424914
N         -11.66782544447622   23.09833003735839   -3.13239861498541
C         -13.48569169096842   23.19371355801181    1.48136549042165
C         -12.79585648046618   22.62609738741294    2.58809850115902
C         -11.59944425506027   21.90921236878128    2.11122182107890
O         -10.76364171610576   21.38656623640929    2.82058425048865
C         -13.24669005251751   22.76293743915641    3.86893692081635
C         -14.43985483174193   23.48173146938493    4.10509124176560
C         -15.14141102284428   24.04709560912965    3.00171998159187
C         -14.64513411649399   23.89338779478218    1.68663213865335
C         -16.33348777526478   24.75809117124258    3.24806083923429
C         -16.81103719992011   24.90491404569359    4.52186404562702
C         -16.11957334334796   24.34730141383434    5.60756623259038
C         -14.95909669673640   23.65136338649391    5.40351622409138
H           3.17294978891654   -1.82184375174603    1.53529827184422
H          -1.23374570761282   -0.38052989174919   -0.30531155509978
H          -1.39088548523208   -2.46277987312275   -1.54314679704228
H          -0.45902259192877   -4.65248870855344   -2.17738370427854
H           1.71241083349424   -5.38658257762945   -1.27559386363205
H           2.96939552681665   -3.93583887907289    0.26805002326715
H           2.54498761523236    3.17324873446922    3.25438846501483
H           1.70179584197323    5.60289690046521    3.91678892765220
H           3.06553800951392    7.49657086217340    3.74047534083081
H           3.83201608297926    8.55033710357080    5.98117231595194
H           1.18455840323748    9.83260117721756    8.15388900426449
H           1.80339136472123   11.23446768355064    7.28720369709786
H           2.92938448145435   10.02334882553607    7.91880020359923
H          -2.29080697831783    4.72032379632395   -0.31250148676479
H          -3.11879075713260    4.48994329676169   -2.75125290799450
H          -3.21290728743741    5.82447115010395   -4.97969439348935
H          -1.81237618992086    6.89413930442990   -5.15223766531097
H          -3.37083492935544    7.56191585947510   -4.67747705910860
H          -2.50602725593290    9.36021950020000   -0.42357678935477
H          -3.36029075573356   11.31674617190507   -0.94208627309782
H          -4.70588697983272   13.30193464017069   -1.22342987775106
H          -2.87687464114124   15.46009601361084    4.67549600023806
H          -1.38354089890824   13.40622921840565    4.93325095265408
H          -5.79302123644203   15.20123887613264   -1.47549605240334
H          -5.36825422331615   16.88662352270925   -3.07334972548560
H          -6.02524621392682   16.29999300001115   -5.51351960959059
H          -8.12108501755123   16.10140592038232   -7.03675216287311
H          -9.37521828728785   17.25182843617005   -6.54742937814682
H          -9.53340509138505   15.55166805344082   -6.12027251153862
H          -7.21810987616095   21.01208800048562    2.63803721010013
H          -6.91687492661744   21.26088537428551    5.19581800365150
H          -6.55625319542198   19.82013122983096    7.32706123045640
H          -5.61749175251880   18.36312827211745    6.96288115007082
H          -7.35978823123640   18.24886646986743    7.18520307074920
H          -9.28370739162355   20.35929936978683    1.91913844117000
H         -11.25984630340665   21.36922278652241   -1.32173061667378
H         -12.70169364227053   22.32392608741450    4.69154492032241
H         -15.20318044953867   24.32812041171875    0.87281126718317
H         -16.86180292470021   25.18633057894046    2.40884597043457
H         -17.72491815612935   25.45167846009791    4.70002704172288
H         -16.51122698432454   24.47170954664648    6.60618155478911
H         -14.42229260956024   23.21925930403146    6.23553798474970
