143
 SCF done       -265.652470190364          0.000717761301
C           5.77066909446008    6.03596907785516   -0.50365076592922
C           4.50244795300372    5.63035477862665   -0.83149546427189
C           4.11715062907822    5.22444878405847   -2.12316342112357
N           3.74781194420370    4.92346923805780   -3.16838077877386
C           3.46107166264784    5.51785627506404    0.11231324098264
N           2.60902995052998    5.36432225287052    0.86544258314710
C           6.94769508969498    5.89361487248905   -1.35461892802460
C           8.10985163644970    5.93941555546695   -0.52981016908562
C           9.36357376091549    5.79157917962906   -1.04849398079880
C           9.51545130230864    5.59955529457716   -2.44047655583575
C           8.35882374502131    5.56823185277325   -3.27207153447537
C           7.07139531999680    5.71664014306477   -2.70603338958090
C           8.52540661693936    5.38205813160034   -4.65935524819519
C           9.77288579957735    5.23128735937189   -5.20108598887330
C          10.91098649871043    5.26207787862049   -4.38156765885719
C          10.78481577323996    5.44188424755683   -3.03075641241053
C           7.70679851208408    6.18104655761495    0.86747615232214
O           8.40948638819956    6.22766216902500    1.85079695277214
C           6.23642938003382    6.42597625732293    0.81087192393428
C           5.63371821872709    7.04989397682327    1.85930441771468
C           4.39679323932160    7.73840863345358    1.88441457025694
C           3.67047625327763    8.24072699141487    0.83125061613688
C           2.50183802945636    8.92240703762804    1.21041321932436
C           1.55273073643029    9.54708057225408    0.36246001076055
C           1.58773340313449    9.40238959407852   -1.07313538775779
C           1.17694684646720   10.28412325388754   -2.03912367699647
C           1.27066958343734    9.77271842345529   -3.34471526550905
C           1.73791141646173    8.49214526239532   -3.39763210111609
S           2.08695143137457    7.89886525795558   -1.81236456464437
C           1.95534786924435    7.62971573670205   -4.58865342387178
C           0.54867284517711   10.26544762168146    0.99837516324187
C           0.42241313968664   10.34785743732525    2.41022028744864
C           1.33709551577605    9.67636655237352    3.25786172490752
C           2.35665017741491    8.97729995058465    2.62091338085258
S           3.65880495184929    8.14125992672914    3.41850502397141
C           1.24742658138585    9.71494097415080    4.69896892063028
C           1.52382706041095    8.70504862671805    5.58193025972617
C           1.38576168354542    9.08620357416611    6.92883950581745
C           1.02213227056308   10.38897681109534    7.09063332250124
S           0.82280311039120   11.17250450477858    5.55902591479222
C           0.79426960933506   11.13658628054822    8.35418295788256
C          -0.71065147712202   11.09088810526370    2.78744746720058
C          -1.42941478723261   11.58677247177023    1.72421459818653
S          -0.74167152780489   11.12371797919739    0.19069471846957
C          -2.58417015360360   12.41520848683789    1.78190595614184
C          -3.21178316708875   12.84739167355093    0.59466714382254
C          -4.35141340790022   13.72440483545216    0.60185290325663
N          -4.91068702790245   14.08897581659600   -0.55752947629822
C          -4.40910908549375   13.66211276815787   -1.69251391808913
C          -3.25765238445237   12.81210168041966   -1.70037836690787
N          -2.70664610737055   12.43078002292424   -0.57194625600929
C          -2.68822486780896   12.37346998075556   -2.92049845777326
N          -2.24047456519138   12.04039988229968   -3.92109792044559
C          -5.03182392587030   14.05324062473605   -2.90284019391630
N          -5.52253512732863   14.35220766503944   -3.89397969239940
C          -4.90723846976203   14.23142638990275    1.79525852117105
C          -4.29677912667116   13.78651974924056    2.99029470504277
C          -3.15761682189448   12.89036439429056    2.98381331069541
N          -2.74741359117248   12.61180306895295    4.22085554475108
S          -3.67969796312947   13.38220243023031    5.27665142943300
N          -4.65600194555061   14.11230445187607    4.23169754200497
C          -5.98947977468165   15.15370740493707    1.74849037943574
C          -6.60229525696689   15.76864196495350    2.81640610335369
C          -7.61934620498354   16.66713254055470    2.44656306890599
C          -8.40660253440890   17.48516881848925    3.29346487674068
C          -8.20915893054782   17.54575651310664    4.72340034287962
C          -9.15612695998585   17.69443914236718    5.70172968684090
C          -8.61542021417769   17.77475418062975    6.99768909874381
C          -7.25515979361340   17.70653355600061    7.02449973076485
S          -6.61207237637639   17.51993320233169    5.42777139142229
C          -6.34820112745954   17.76556851129194    8.19979009687744
C          -9.37185449737042   18.26446933334823    2.66308084193199
C          -9.55745820700564   18.29545140377902    1.25314183275691
C          -8.73914589730466   17.50443696835333    0.40745944980740
C          -7.80566198619562   16.69535300519304    1.03981968329982
S          -6.67325689898343   15.64407329120065    0.22222106683838
C          -8.82859122957267   17.54821903037855   -1.03347484917647
C          -8.65595959667855   16.51752247432346   -1.91998282056978
C          -8.73702109595507   16.91691806826277   -3.26505345716323
C          -8.95422985020601   18.25306026812716   -3.42204884591987
S          -9.08362450386182   19.04617665511253   -1.89047325180504
C          -9.09082660432290   19.02597407489095   -4.68308618002242
C         -10.59658321945563   19.16000082836700    0.87029462518869
C         -11.19035830230466   19.82006608612874    1.92084234183030
S         -10.45949195871943   19.36300359584875    3.45691813861871
C         -12.21726337787296   20.78747907749208    1.98081721956809
C         -13.04781571503714   21.29188720414922    1.01864506240406
C         -14.02255945594415   22.34234252916783    1.27978599553103
C         -14.10225909495470   23.14046743270452    2.39207639108981
C         -15.06844225666005   24.15420783642276    2.56624255838874
N         -15.82636270981163   24.99006423424399    2.77979184908046
C         -13.23738283822010   23.11726328326066    3.50703358931470
N         -12.58211088816099   23.18929496269530    4.44816660058777
C         -14.88078929228859   22.46197595495375    0.10714654371606
C         -14.40104278269453   21.57114093048628   -0.89227236369197
C         -13.22736550683488   20.84037746645336   -0.38447443508194
O         -12.57983071001205   20.02904143049633   -1.01390104666131
C         -14.99876765286568   21.46344634311418   -2.11470159091553
C         -16.13176148649670   22.25769575752593   -2.39892065520182
C         -16.62282634024315   23.14937207234981   -1.40222743512286
C         -15.98054248054545   23.23896472463958   -0.14581119299227
C         -17.75542486165435   23.93630620167392   -1.69457420277409
C         -18.37405687006457   23.84820504336679   -2.91191495018227
C         -17.88998356086539   22.96906731132693   -3.89220393974256
C         -16.79247422478740   22.19106804881558   -3.64124757025072
H          10.23057748452208    5.82166730446241   -0.40540911099202
H           6.21240275333623    5.69787318635652   -3.35868368480196
H           7.64600937896848    5.35618646421185   -5.28610739521967
H           9.88961425483943    5.08693948518027   -6.26475816328918
H          11.88792565968970    5.14276435737956   -4.82567998307195
H          11.65747313153856    5.46654577905515   -2.39453468080794
H           6.21990651797018    7.08677697490460    2.77227242426567
H           4.01439992874051    8.18115387478798   -0.18465316564791
H           0.85167116387563   11.28599143493870   -1.82714749634947
H           0.98914587693370   10.33376238356753   -4.21770456340795
H           2.58677650778742    8.13935833207846   -5.31607261449229
H           1.00341306763029    7.40671575808669   -5.07081441904120
H           2.42845497719605    6.69233420404942   -4.30399274848490
H           1.77583142733967    7.70645782760444    5.27466494808921
H           1.55313307401042    8.41538318782047    7.75255788554388
H           0.96197050322024   10.48381491770606    9.20731205159204
H          -0.22562259777048   11.51831317751460    8.39721759063378
H           1.47076504613099   11.98810416282162    8.42468328946421
H          -1.02075251564123   11.26582761086725    3.80012427347921
H          -6.30813725328357   15.55553812210073    3.82666211994434
H         -10.21252108192506   17.70508524358766    5.50447640779900
H          -9.21684872733211   17.88421217655178    7.88246390892738
H          -6.92799592307508   17.89779266503539    9.10997636133138
H          -5.64887483268472   18.59587019617890    8.10451624018588
H          -5.76537896743019   16.84826769114930    8.28304963654766
H          -8.51636173327412   15.49514439170245   -1.62042603409386
H          -8.62614946544707   16.23529139845448   -4.08903599297108
H          -8.96202307828197   18.36665552318096   -5.53789671512118
H          -8.34390485528543   19.81795406688013   -4.73275481084758
H         -10.07416033893005   19.49264193087324   -4.74061076886096
H         -10.92394260450614   19.29686466499933   -0.14312380486787
H         -12.35853688740982   21.18050980633597    2.98126068345023
H         -14.61167240876783   20.77896948616333   -2.85503930314261
H         -16.38223381822922   23.91986751985292    0.58729004553912
H         -18.12386329362533   24.61234938903823   -0.93689985762455
H         -19.24045713205364   24.45579700396312   -3.12637322042795
H         -18.39109004638932   22.91141906686009   -4.84698637745787
H         -16.41506356127318   21.51214108608573   -4.39206772694956
