99
 SCF done       -210.412186016005          0.000889837986
C           5.73848800291560    7.50147883182400    3.05180015009408
C           5.78589068264685    8.38302943133744    2.00510585277125
C           6.50344601328426    9.59646712460923    2.03889712628420
N           7.06757097883464   10.59568867005756    2.02329202488706
C           5.20719974395863    8.12368647959929    0.74535939640177
N           4.78448824750533    7.92382986335543   -0.30311138291893
C           6.54829064905238    7.57903182787040    4.26085898364229
C           6.64631922412539    6.27217461879178    4.82408192260255
C           7.38961295369655    6.03020654589887    5.94365204662686
C           8.06821488271023    7.10234134395274    6.56568447302439
C           7.95634389765027    8.41377144468575    6.01849233822641
C           7.18634902585919    8.63469475870222    4.85380606346019
C           8.63126487679201    9.47528565157077    6.65476676983739
C           9.38531015199013    9.25397844899734    7.77485529987003
C           9.49752173470690    7.96245434414638    8.31124846759959
C           8.85332444796194    6.90987366217331    7.71971516768222
C           5.84169358179339    5.33134736693390    4.02468548871846
O           5.72494659212029    4.13692677574850    4.16301855237330
C           5.12616103207116    6.18678233009825    3.02923469476914
C           4.03978230196848    5.70486895294588    2.37842016584809
C           3.01000033593170    6.43479974530889    1.72539173685546
C           2.17682427608116    5.94642123995740    0.73485234432591
F           2.30079753683678    4.71367762348440    0.24501999924687
C           1.23209808542797    6.87454224060071    0.28520229034311
C           1.30864605723957    8.08414068258696    0.98485172286958
S           2.56177572221237    8.07425634952722    2.16443166040804
C           0.35491823808306    9.00830611685176    0.54469109919116
C          -0.42059447539972    8.49230091355229   -0.49845790911919
S          -0.00146949982991    6.86371579442732   -0.93921074042923
C          -1.36650119870399    9.41673033341068   -0.96125731860509
F          -2.17232246371970    9.16042433458093   -1.99570294600736
C          -1.34018522769292   10.61861199271314   -0.27902353557470
S          -0.08077726057208   10.63002775472139    0.93750527494693
C          -2.12176838238117   11.80967330360142   -0.49434089920664
C          -3.39594882432803   11.85889130060274   -1.04934693516175
O          -4.12851583555729   10.72796849950456   -1.28934225739593
C          -4.45377937143002    9.93475525740008   -0.16274088853694
C          -4.02030861898347   13.10203525130420   -1.39589782869465
O          -5.19818096650934   13.17097475857849   -2.05141815507655
C          -5.63436095278946   12.15916634503403   -2.94151211223066
C          -3.49542229234317   14.33840841410898   -1.01306661781263
C          -2.23582132114959   14.30718800959902   -0.36496258269051
C          -1.55730580845503   13.05948025941785   -0.13542197668385
N          -0.39281996507008   13.33758078202553    0.41198409646567
O          -0.34020835415024   14.66392009120315    0.51167524444643
N          -1.42807738481277   15.26303770593743    0.04810028664875
C          -4.18134823422121   15.56496532968169   -1.30721089275549
C          -4.02334900582433   16.80329695688736   -0.71378030161849
F          -3.28005053401150   17.02867485481024    0.36939995269951
C          -4.79094999849043   17.81087962795526   -1.31432519620550
C          -5.55090439298830   17.33210517618671   -2.38563844323780
S          -5.35613147861447   15.63215428427684   -2.60244736830303
C          -6.30271580402203   18.34863042242586   -2.98330855629657
C          -6.10993897635376   19.58518088086686   -2.35328404230509
S          -4.99392817688146   19.51278516715624   -1.02088613541722
C          -6.87113962593921   20.60363877052328   -2.93527989684690
F          -6.76805204250537   21.88129067501943   -2.58204094451583
C          -7.63944537279658   20.17320489596953   -4.00539542640256
S          -7.38477318371958   18.46567357513965   -4.31634525554432
C          -8.49780763671370   20.92994808483214   -4.84565187790724
C          -9.26380739700140   21.97463810201458   -4.42736615372631
C         -10.02289048718005   22.88434748093898   -5.26337687101182
C          -9.85076365784531   23.07298265984773   -6.60961615072848
C         -10.58987993601120   23.99570298237426   -7.37845046710912
N         -11.16584725069310   24.72161334245422   -8.05618423437550
C          -8.89718045723074   22.39320830362678   -7.39611786085459
N          -8.13264134266944   21.88500766417948   -8.08575653808828
C         -10.93081572768737   23.62791662972113   -4.40043287168481
C         -10.70719297374399   23.22792391865593   -3.05160956161015
C          -9.65685626374488   22.19729495224526   -3.00614616767564
O          -9.28399068431942   21.57928798976795   -2.03430473062488
C         -11.41635514881457   23.76097956185136   -2.01430834872325
C         -12.39708144490181   24.74193241504858   -2.28280183898514
C         -12.63161822793142   25.14301005802121   -3.62992984776525
C         -11.88435098210104   24.56980568110484   -4.68421895157239
C         -13.61843281472970   26.11666337050574   -3.88614013532677
C         -14.33835793250323   26.67001687895818   -2.86244568324715
C         -14.10538446977369   26.27564197274193   -1.53645816523299
C         -13.15490371942807   25.33268938533910   -1.25276182890410
H           7.46095329381764    5.03223091763897    6.34991304750582
H           7.10928942037394    9.63743243720339    4.46301349252497
H           8.54477912753112   10.46687339141061    6.23557958388041
H           9.90054198744757   10.07315093415215    8.25351869209512
H          10.09682871082637    7.80589665278000    9.19558583235914
H           8.93612999399792    5.91351310560997    8.12848096988209
H           3.90289888540413    4.62758142123392    2.40901508060179
H          -5.18414578953788   10.45266551420609    0.46837607824222
H          -3.58128659826614    9.67982892046174    0.44253654690646
H          -4.89463897973541    9.02501411538534   -0.56464106960904
H          -6.20750540143155   11.39341196329408   -2.41682805201923
H          -4.79938502029361   11.69163285446077   -3.46298096249761
H          -6.27905805571931   12.67243217071470   -3.65548590727236
H          -8.54835050896642   20.60469527099745   -5.87730535346834
H         -11.22729548551404   23.44134014753193   -1.00029831401608
H         -12.09045793157288   24.88682335781248   -5.69433979247625
H         -13.79309683698817   26.41824274959724   -4.90850014981163
H         -15.09148542784581   27.41556878440795   -3.06894091483846
H         -14.68296443737911   26.72230162990263   -0.74098665981605
H         -12.97097663432823   25.02486803616188   -0.23383801065722
