141
 SCF done       -256.144231752829          0.000411739562
C          -3.46143350874964    0.11763552279404   -3.13828827711682
C          -4.76406513959278    0.32707551595523   -2.75989316726997
C          -5.76647543221746   -0.66483427995742   -2.80176097723922
N          -6.63581114449328   -1.41515223385074   -2.81192285038307
C          -5.31368113411183    1.52190552762579   -2.24938120011848
N          -5.85238309789326    2.43523302351015   -1.80657822178953
C          -2.92568522751278   -1.16577642002286   -3.58034059060409
C          -1.52713828711067   -1.01875119608535   -3.79025372780373
C          -0.74127290934235   -2.05834607413896   -4.19563321000608
C          -1.33180784770027   -3.32296083064903   -4.41392816883637
C          -2.73289645393701   -3.47901134650632   -4.21110098149537
C          -3.52018470296989   -2.38131546038002   -3.79260810685243
C          -3.31359642989774   -4.74446346615926   -4.43117742183886
C          -2.54839400214071   -5.80629198969602   -4.83044425210562
C          -1.16852504158619   -5.65140369039136   -5.02958986785246
C          -0.57329931642093   -4.43600991090258   -4.82607519558744
C          -1.12770823027471    0.36950490892033   -3.50370514230074
O           0.00339880849536    0.80664152603831   -3.59903230797514
C          -2.37016998348041    1.07837006158218   -3.12112768406382
C          -2.54949444572970    2.41404436032301   -2.85785325447380
C          -1.63585911616939    3.47248791852480   -2.72519968896167
C          -0.24293192213823    3.52756080260625   -2.72193492307902
C           0.26878313291262    4.79558535984517   -2.51694491398645
C          -0.75803850380956    5.75202147181137   -2.35147501543612
S          -2.32378767170205    5.07248804317549   -2.45361037285938
C          -0.33009422604721    7.07291994253505   -2.11473590531273
C           1.06657579814196    7.25843859866774   -2.08042120648693
Si          1.93972882394937    5.63368953436604   -2.39927925717655
C           2.98906497957901    5.08848089163105   -0.95714348537183
C           2.95536409445085    5.74886505384143    0.27452556788558
C           3.74632757621989    5.33665721965473    1.33044729560897
C           4.59106673376690    4.24951695312433    1.18214499252355
C           4.64125135107550    3.57916546285476   -0.02902684835334
C           3.85176906387037    3.99552981281663   -1.08366045942285
C           2.87479341743839    5.58035071993633   -4.01133681607894
C           3.77471584067618    6.59449817878031   -4.35259516652923
C           4.50570908087509    6.54065269560081   -5.52383874100787
C           4.35704315362967    5.46626962105572   -6.38543163258565
C           3.47166757266986    4.44997437541079   -6.06847880034347
C           2.73994235426256    4.50740138381379   -4.89694947963225
C           1.38670273148467    8.57558195846217   -1.80014261424224
C           0.27730172407006    9.40096755350607   -1.62531800202722
S          -1.21688218334497    8.51978625364455   -1.82681356318228
C           0.27620483106436   10.77965234199526   -1.29979628661659
C          -0.93326336821536   11.50492875351373   -1.18726840361675
C          -0.96889484806338   12.89904221751629   -0.83050043130380
N          -2.14600596013276   13.52565824518150   -0.73862984012680
C          -3.25907384686012   12.87347476846889   -0.97458120016286
C          -3.22340233403457   11.48819193420183   -1.33421548536598
N          -2.07776402786290   10.85673023606573   -1.42642530228704
C          -4.42489983783989   10.78558264677785   -1.59801894316395
N          -5.41404757442647   10.24784009687994   -1.80786997264194
C          -4.49623540521730   13.55488579034294   -0.86626299226074
N          -5.51229949377175   14.07705111761395   -0.78476332493166
C           0.20245281501498   13.64398298170821   -0.55677678216571
C           1.41744855557734   12.92617025014630   -0.68207628817678
C           1.45381681092701   11.52677961081187   -1.05027326161281
N           2.70388783521824   11.06870664179779   -1.10663721860846
S           3.72457907332227   12.25363652164553   -0.74309781885687
N           2.64301433265480   13.41336844655565   -0.49147729173614
C           0.13296840703522   15.00687467231243   -0.17760023635799
C           1.19252232317602   15.83815027144864    0.18186326320591
C           0.80770867458049   17.12628871753924    0.51105893203796
C          -0.58807559614181   17.28395400780137    0.39125926866506
S          -1.39593859842335   15.84747092663712   -0.10435922678091
C          -1.07903990003120   18.56782606137210    0.69912284648157
C          -0.10854248765252   19.51715331723250    1.08622786357228
Si          1.58960633966876   18.72904894459878    1.08105757911810
C           2.32384178804085   18.64457441585716    2.79319462340349
C           1.93711910183217   19.53182092599385    3.80193730084104
C           2.51502431530772   19.48294706537786    5.05703139996525
C           3.49347475576289   18.54417189179710    5.33656367923507
C           3.89197008330888   17.65423553733835    4.35251794660002
C           3.31508539777189   17.70646739174370    3.09829710303916
C           2.77247436484336   19.44808345872612   -0.16836923101918
C           3.42165660162637   20.65846607533092    0.09455622937071
C           4.30882059894298   21.20787835756290   -0.81072160254704
C           4.57417335950465   20.55679928599403   -2.00435760709126
C           3.94616894950769   19.35522358267610   -2.28504340030505
C           3.05611180951776   18.80964471394423   -1.37880201492979
C          -0.68173563178862   20.73818533486910    1.39096369025637
C          -2.06859220393357   20.76029859381614    1.25816445106027
S          -2.66804002070061   19.20272808670421    0.69790964792648
C          -3.01439487992757   21.78200647561756    1.44620919448008
C          -2.89697544460511   22.99965712672140    2.06808546499169
C          -3.96220115610080   23.98556599867677    2.10192297741539
C          -5.05685697215820   24.03690503152798    1.27647822586042
C          -6.05010069104229   25.03506600166182    1.34926844922890
N          -6.89394421368264   25.81385080314349    1.35995358374166
C          -5.32290345381413   23.15004705966025    0.21221515351097
N          -5.59543814077030   22.49342872045474   -0.69009242193536
C          -3.62037028643800   24.98469756929392    3.10721552091715
C          -2.32467865132951   24.68351706022575    3.61138133430128
C          -1.80820498276095   23.46819553729449    2.95688017490517
O          -0.72118871169377   22.96425425422296    3.16208352199315
C          -1.72277424990251   25.45360420982570    4.56380582645068
C          -2.40639478225675   26.58206978651502    5.06944052931422
C          -3.70802417116616   26.88547376242388    4.57677121246071
C          -4.30415511612896   26.06946651290863    3.58727035196259
C          -4.38340257767697   28.01013676857766    5.09221378285184
C          -3.80206249090163   28.79964572921753    6.04685802738319
C          -2.51979806509654   28.50058208322172    6.53040606557794
C          -1.83681563242366   27.41548690266561    6.05180498816555
H           0.31908148509704   -1.91763316752546   -4.34513247445006
H          -4.57787338301970   -2.53510515044764   -3.65231287579998
H          -4.37637768563627   -4.85884736162848   -4.27563032707632
H          -3.00247431570648   -6.77205343246316   -4.99473289156363
H          -0.57961877319137   -6.49986768019043   -5.34486037280357
H           0.48899272757731   -4.31057066695166   -4.97773630916501
H          -3.57745167131516    2.72974641276984   -2.72354963162412
H           0.35674687196162    2.64788530470689   -2.86554648345197
H           2.30049356937636    6.59985156609539    0.39747841786220
H           3.70512459505683    5.86429682203524    2.27243346243060
H           5.20932155980173    3.92656824903958    2.00686479023239
H           5.29922418086530    2.73099671510566   -0.15024366055761
H           3.90026011973945    3.47187894611903   -2.02756430260593
H           3.89591879659182    7.43538920245802   -3.68477398399622
H           5.19418485513999    7.33705849056600   -5.76725184748958
H           4.92844914891899    5.42252401735198   -7.30105758601182
H           3.35069213400975    3.61003449839678   -6.73696254759595
H           2.04985430726949    3.71062886787007   -4.66063612481302
H           2.38743822410773    8.95603334552090   -1.71020633136538
H           2.20553422025586   15.48029953388510    0.19341859813973
H           1.17342968859436   20.26774379688128    3.59732570920974
H           2.19997803037693   20.17992679554522    5.81979344144652
H           3.94410260982774   18.50483854324210    6.31752247334567
H           4.65492307647575   16.91929255097775    4.56545646239197
H           3.63199064356324   17.01040752732413    2.33466800520223
H           3.22318409267935   21.16864379190080    1.02611136754497
H           4.79658933144986   22.14536017106466   -0.58667664603876
H           5.26859800189060   20.98446568380180   -2.71255108907644
H           4.15112752655596   18.84273851685364   -3.21384758497928
H           2.57016858876462   17.87134175954386   -1.60531180776175
H          -0.12650622131642   21.60276625150458    1.70204599791506
H          -3.99670168188146   21.53788004019358    1.05747593663886
H          -0.73658879662147   25.20510041197282    4.92737277976175
H          -5.29298989959703   26.32244102901414    3.23946820450565
H          -5.37002585481852   28.23713272082259    4.71567479394221
H          -4.32748559485013   29.65953903835126    6.43461136357496
H          -2.07600078576271   29.13388113258816    7.28409519702229
H          -0.84902932118773   27.17993074038022    6.42057789332017
