101
 SCF done       -200.037643051797          0.000644232010
C          -0.13658870840162    5.75820008702726   -3.91722055706354
C          -1.30881126983635    5.19050629092607   -3.49217215927422
C          -2.55320545784167    5.38054701374905   -4.12482656781267
N          -3.59548559956878    5.49906657592269   -4.59100451158703
C          -1.38396263229246    4.28171639426303   -2.41710601227551
N          -1.47273435988330    3.49323752481464   -1.58640639852272
C           0.05123250498087    6.46131221268431   -5.17866909755673
C           1.43443569490291    6.40726863894381   -5.52279766053496
C           1.90064450215070    6.94578314234962   -6.68726657992595
C           0.99336463693132    7.58391472711025   -7.56372602642232
C          -0.38502351902158    7.66333892213710   -7.21022200855788
C          -0.84318072333402    7.08815519437214   -6.00263158226728
C          -1.27481648350260    8.31539664546349   -8.08777082958028
C          -0.82884191071821    8.85750454313164   -9.26223618677816
C           0.52712390540325    8.77457809460291   -9.61209639207573
C           1.41839748329314    8.15201745198139   -8.78088328731231
C           2.18193644451289    5.73064394734932   -4.44475623895771
O           3.36011922230722    5.45784278100640   -4.40931015613082
C           1.18136503682862    5.51344550806572   -3.36339008585648
C           1.57135152259942    5.25358149481189   -2.08677993058529
C           0.78486669690676    5.44402555145284   -0.92515245752902
C           0.84776742854845    4.73786612022902    0.26467293299238
O           1.69708543069834    3.70492276798570    0.47669832207676
C           1.24400446903739    2.84237467749075    1.50488957846792
C           0.78933892745579    3.64068392031519    2.73343913340367
C           1.93378872119230    4.45242841142203    3.33568957136340
O          -0.29640444545558    4.49057510778729    2.37959855080174
C          -0.12653299898632    5.13328335777802    1.20737791190051
C          -0.92442563681784    6.18511678908208    0.76410327012438
S          -0.48758870422393    6.63525646130070   -0.85456354048974
C          -2.02027057585017    6.83056756830235    1.40447706737521
C          -2.97981157915273    7.52669227834779    0.63612381885156
C          -4.18878353180407    8.04992840716804    1.19963170062344
N          -5.07407501620014    8.66454845370314    0.39003660763229
C          -4.83010764604307    8.77710589356443   -0.87392013648310
C          -3.62801712328863    8.26349470435409   -1.43159461778141
N          -2.75632770410293    7.67076814362792   -0.68457404754359
F          -3.35273410133583    8.39341539710671   -2.72499735505317
F          -5.72500096494388    9.39897741469670   -1.63123687681242
C          -4.49051645841881    7.96143858884367    2.57775356156369
C          -3.49952548335777    7.33251453249192    3.36752044851907
C          -2.27504941158062    6.80134528707220    2.79343613218803
N          -1.46958832695094    6.30657294220920    3.73140161852480
S          -2.18487407473506    6.43059879570060    5.15791814891146
N          -3.53962693089222    7.13534081992840    4.68373642321349
C          -5.73877721995942    8.44581440899599    3.06942686603515
C          -6.13531920125109    8.74361094055671    4.37151664566405
O          -5.31667287358121    8.77230320426358    5.44781461437475
C          -6.03770344486706    8.73805532659504    6.66445692068808
C          -7.15337644610307    9.78980052482823    6.66598905640586
C          -6.59251100453015   11.20271897408639    6.51696830911335
O          -8.07572824784010    9.50006921254521    5.62185500763893
C          -7.50359216791409    9.06586866125646    4.48383216474694
C          -8.18239805147520    8.99232654163194    3.27126054205278
S          -7.06335784702170    8.68084675259108    1.96632522314958
C          -9.55395559962866    9.18198293143433    3.01701820855341
C         -10.56187398193185    8.81752117870260    3.86738688708195
C         -11.96752798346575    9.11903982132400    3.70592178217058
C         -12.49349316622481   10.10645314516137    2.91257274508538
C         -13.87103182950976   10.38566348186626    2.81084988206961
N         -14.98046005157776   10.65503331953204    2.68713726758012
C         -11.72437674763188   11.00012530807213    2.13871419841992
N         -11.16169419427342   11.77896939539738    1.50972245359035
C         -12.71707618290836    8.25900792584551    4.61373077846684
C         -11.78945485957533    7.49411478409893    5.37663099680878
C         -10.41327946696130    7.82224692684320    4.95737448869008
O          -9.39560455613212    7.29725269212428    5.35893360852540
C         -12.20035088587876    6.59092352991442    6.31306843550921
C         -13.58428929249833    6.40790829598180    6.53483347389891
C         -14.51820727054506    7.16525167037683    5.77130160550871
C         -14.06247475433734    8.09436296449156    4.80725440845836
C         -15.89586853294033    6.96632464333420    5.99320953848348
C         -16.33239637595061    6.06349131998733    6.92430458072252
C         -15.41185213729691    5.31873745891244    7.67614067234509
C         -14.06711636616256    5.48844176379423    7.48629739002554
H           2.94928555487924    6.88771721888003   -6.93887892310856
H          -1.88824867898230    7.16978718964744   -5.74688666225037
H          -2.31800112091412    8.37374334179047   -7.81434819201552
H          -1.51876608400268    9.35294470004748   -9.92892061483478
H           0.86226043164056    9.20738380342753  -10.54290609981192
H           2.46392958166542    8.08655022149517   -9.04487966437502
H           2.59450598984043    4.92460295747058   -1.94064707098783
H           2.08498509983066    2.19241845640783    1.74798003567584
H           0.40573962676019    2.24116521236916    1.12969520548957
H           0.37198855400057    2.95962256972309    3.48169759614176
H           2.42641193378249    5.04496813365407    2.56769006018517
H           2.66312849782434    3.78692701941126    3.78864238865700
H           1.53745523076855    5.12296106090680    4.09378701127122
H          -5.31002842761829    8.93204200620983    7.45230753218819
H          -6.48344105540367    7.74467666620684    6.80165772537893
H          -7.74050698059044    9.70824502177008    7.58653225330127
H          -5.93446528166203   11.26246380496586    5.65263358609362
H          -6.02999309738900   11.47211598202484    7.40633037201154
H          -7.40817251267835   11.90889475934336    6.38477068428616
H          -9.80248517489554    9.58077015461194    2.04103274214453
H         -11.47861694498998    6.01954119075780    6.87804745044027
H         -14.79299407071968    8.64581560068284    4.23659460743576
H         -16.60075490080915    7.54273587828160    5.41211531109646
H         -17.38998330809422    5.91782555938354    7.08613491938992
H         -15.77320104976611    4.60929138615364    8.40569576969151
H         -13.35341232170810    4.91682341730765    8.06178972696579
