134
 SCF done       -238.931013327749          0.000732415091
C           2.01091879888224    1.10365719729532   -2.68650140207457
C           2.64491434963740    1.08406951156803   -3.90166509580669
C           3.24812609327735   -0.06499243139557   -4.45591361093804
N           3.75576978525476   -0.95813572415275   -4.96864849804771
C           2.83772122487127    2.18444888683129   -4.76424844700713
N           3.06174266333006    3.01657434100777   -5.52393233307617
C           1.92132352023144   -0.03098549707018   -1.77562764236821
C           1.35314005289715    0.42050355096878   -0.55254148330296
C           1.15383797138061   -0.41797503908595    0.50588411480025
C           1.51321301626380   -1.77860193849355    0.38328768660368
C           2.07223428993529   -2.24220128849581   -0.84226825552554
C           2.27207529025625   -1.34754975914247   -1.91857150570585
C           2.42051416025320   -3.60342646196522   -0.95736167538121
C           2.22838339527801   -4.46613399480180    0.08711175306788
C           1.67937658110994   -4.00807908291673    1.29410441312224
C           1.32964519896737   -2.69301591857776    1.43899425419828
C           1.03686233111931    1.85618380647175   -0.65189321187212
O           0.58015952355999    2.53788479538669    0.24301847384806
C           1.38071576342956    2.24806834734314   -2.04153137819412
C           1.08498214274776    3.40595630374139   -2.70469286131510
C           0.49279775613930    4.61324577647967   -2.27179051569816
C           0.13267324200658    5.07963239420404   -1.03116587181012
C          -0.41762598032558    6.37576019159231   -1.04604178967514
C          -0.86520338425608    7.13482498044209    0.05986218872722
C          -0.73844420943841    6.66948808929542    1.42269953131788
C          -1.62702066531185    6.82634556068548    2.45247970358011
C          -1.17107048706079    6.28573458939962    3.66831882790968
C           0.07097943578449    5.73192005919666    3.58477580096106
S           0.69913186803799    5.85449571961028    1.97819926697698
C           0.86804030587391    5.08021899272424    4.65600637946028
C          -1.42123197621013    8.37689913320653   -0.22978487871565
C          -1.50995611678130    8.90248968415836   -1.54507526563078
C          -1.02879109615519    8.16400737502578   -2.64621447615034
C          -0.51022963160511    6.90521589008337   -2.36240613116237
S           0.14517370390596    5.79948022387434   -3.52940045218004
C          -1.03482341522213    8.67806616750382   -4.00069061133662
C          -1.29474061361924    7.99967460129379   -5.15832496492987
C          -1.15008614740441    8.78933001620193   -6.31598546661190
C          -0.76474679544426   10.06804411484592   -6.05776868828474
S          -0.58706537816833   10.32774981516673   -4.35300261553616
C          -0.50489467505005   11.17165886928192   -7.01808863094021
C          -2.11278784742146   10.18238343671262   -1.55640025706097
C          -2.43995674071279   10.63848140146843   -0.31277516270327
S          -2.03805340976497    9.50409827197298    0.94839610146226
C          -3.04649141412885   11.88453895836418    0.06659490424799
C          -3.45479386389676   12.86582403702157   -0.85161270750549
N          -3.96088113131317   14.00931952095249   -0.45854419928557
C          -4.09753681280197   14.22939136014774    0.85596506770805
C          -3.73344153461871   13.22941342010318    1.77177400660864
N          -3.21526407726610   12.09038402635522    1.37933031687832
C          -4.61849787980863   15.51505645183918    1.23065979680398
C          -4.78027188983503   16.06019477341411    2.47103109513791
C          -5.29578391215094   17.37808005644105    2.44094947903425
C          -5.60193739225621   18.20849561459179    3.53924000598482
C          -5.29641689985364   17.80547090865813    4.89675620416554
C          -4.15936352578940   17.20691552597888    5.36325767773295
C          -4.18592796855686   16.96628598437167    6.75120495463281
C          -5.33986096575545   17.37076093478106    7.34883073070008
S          -6.42489392936125   18.07633356729344    6.19621509165127
C          -5.72327238147512   17.27729669825768    8.78124929213792
C          -6.18644273588854   19.43331910461135    3.24208336087778
C          -6.44964542949472   19.87026426753008    1.91479006683936
C          -6.13813124400744   19.03822952896706    0.81432813503565
C          -5.55062952415818   17.81311186027121    1.11488890488739
S          -5.10113867519455   16.59617048449787   -0.04964349249181
C          -6.42578564500417   19.41759379563024   -0.55023294577070
C          -5.67705472873156   19.17283889787931   -1.67023218538775
C          -6.27498093067469   19.64280326305446   -2.85348625709935
C          -7.48819666751961   20.22964664957055   -2.65312897275116
S          -7.91034418858849   20.22641006283706   -0.97626587708022
C          -8.40154528905748   20.83470818612769   -3.65674405168232
C          -6.95902632394596   21.18204658702420    1.88002188012576
C          -7.11012886305350   21.75413052292182    3.11973568892638
S          -6.62450441611141   20.64754864404287    4.40307895867976
C          -7.58993778590550   23.01745521636337    3.53142306107174
C          -7.91199265364784   24.14067841793606    2.82183908107464
C          -8.40313748339426   25.36150723463523    3.44726068637111
C          -8.88612780933641   25.50070500098142    4.72247542890223
C          -9.36118559224979   26.71811480615214    5.25489481295789
N          -9.75980469036954   27.67328224517903    5.75210300033054
C          -9.02792066259659   24.47444731507157    5.68099455018834
N          -9.19923269939969   23.70832511274887    6.51962319744458
C          -8.36509822649299   26.42462640429585    2.45023651613137
C          -7.96659540006624   25.85858315169637    1.20806844719891
C          -7.71599771399661   24.41652564313262    1.37659280206272
O          -7.40500593810979   23.65105766146482    0.48690491983557
C          -7.84764150755743   26.60964927619653    0.07463617261952
C          -8.11974099227577   27.99440798326017    0.13509094410795
C          -8.51109395942948   28.57203734280351    1.37708959459234
C          -8.63088706424106   27.76608041954544    2.53259410547946
C          -8.77457247214982   29.95605635911947    1.42838346736062
C          -8.65803339325189   30.73321932982535    0.30828967539797
C          -8.27288095880822   30.16305450942647   -0.91425826172682
C          -8.01002558022607   28.82277614409338   -0.99899893236408
H           0.72309940040082   -0.04762028345654    1.42444249796625
H           2.69311299749845   -1.73214729562519   -2.83360295361136
H           2.84423016013381   -3.95087920788312   -1.88822280381985
H           2.49854593999600   -5.50691135271057   -0.01093564542794
H           1.53451992173068   -4.70262298445149    2.10813316437358
H           0.90585126525628   -2.33458556757617    2.36583949141121
H           1.31813952507372    3.41641704268039   -3.76352863590968
H           0.25369094816574    4.48596297933802   -0.14472034160823
H          -2.59521909943659    7.27737530001888    2.33326605176358
H          -1.74585818772855    6.30757332234277    4.57715736415847
H           1.79589655006701    5.62490799545397    4.83118779612254
H           1.12961343952145    4.06161376597402    4.37112346818186
H           0.29733254286627    5.05329547429149    5.58123255284880
H          -1.61585890069171    6.97422684118113   -5.18218266322809
H          -1.32329058400712    8.41626566113808   -7.30963134342579
H          -0.66869997952928   10.82359234966634   -8.03502751282437
H           0.52216148800093   11.52517085107519   -6.92878117106506
H          -1.16518049535325   12.01678669556777   -6.82405213811795
H          -2.30005016346341   10.73892318884874   -2.45541890821205
H          -3.36720562881013   12.72401214019668   -1.91916238227535
H          -3.86415766895883   13.35291192376589    2.83743932295405
H          -4.55932336276554   15.53750902644768    3.38301016579845
H          -3.31051333764110   16.98858840401962    4.73962178647092
H          -3.37238199888445   16.51051814678843    7.28759473472427
H          -4.93209301436527   16.79186267830550    9.34767079032885
H          -6.64303643537223   16.70477395769107    8.89750184454365
H          -5.89598394001207   18.26980019316979    9.19675634863531
H          -4.70854181537737   18.70775347906415   -1.64303302478067
H          -5.82029497732831   19.54749996866765   -3.82355904642299
H          -7.98185520680520   20.72956351344063   -4.65433093992570
H          -8.55069411961105   21.89361672713430   -3.44630898723032
H          -9.37760148476043   20.35071215133767   -3.63161246373509
H          -7.19142891211494   21.71445639690805    0.97736151650742
H          -7.68423445940746   23.09475649722071    4.60880810271248
H          -7.54459867675975   26.15265392012307   -0.85583625908097
H          -8.92448072415163   28.23631660757754    3.45731663756301
H          -9.07188656040259   30.39019046917896    2.37171972506866
H          -8.86192257937996   31.79236321563803    0.35802860745287
H          -8.18535966019757   30.79121001956288   -1.78823521110821
H          -7.71281327605096   28.37792756091484   -1.93757305312898
