101
 SCF done       -194.326498300117          0.000657862997
C           2.33358676820353    0.59719843391164   -0.58200316301105
C           3.67766974519426    0.74525693406613   -0.79643929675601
C           4.58910681645995   -0.33016397938181   -0.84809266964921
N           5.37811182796182   -1.16269615321701   -0.89533833609497
C           4.32615919149248    1.97470579224145   -1.04253926445525
N           4.92223106461141    2.92573554589129   -1.28468315286970
C           1.62419878081787   -0.66701074851782   -0.44609589873692
C           0.22648104297461   -0.39819782449026   -0.43053838919056
C          -0.69947989761996   -1.39497107932317   -0.31822884896903
C          -0.26055260943571   -2.73343933787440   -0.21373660149864
C           1.13717798133514   -3.01106832673394   -0.22236754300964
C           2.07239595543842   -1.95744029215869   -0.33955832552360
C           1.56294099127407   -4.35070543991739   -0.11318628322721
C           0.65419645081322   -5.36758414979264   -0.00231059017277
C          -0.72160405631329   -5.09284020879469    0.00548218554961
C          -1.16913073771054   -3.80388097811956   -0.09859473732599
C          -0.00628714075312    1.05211284179147   -0.55186135000552
O          -1.08589988612793    1.60012437314899   -0.58995751070598
C           1.35041744838929    1.67044478456406   -0.54911610836713
C           1.64082735268821    2.97556145065309   -0.30262486730327
C           0.74884330949025    4.09515965006396   -0.28916002683181
C          -0.38232938130448    4.24369831233974   -1.08497850410544
C          -1.22404779746016    5.34840551257697   -0.99076031328523
C          -1.01243275089691    6.39046035793617   -0.09545238454781
C           0.17908104178709    6.31740716338002    0.66073222387719
C           1.04389452882656    5.18803650153059    0.55903729256056
N           2.07351029077758    5.39551263218442    1.39173001438166
N           1.83408071599630    6.56723805566500    1.91227972665134
N           0.74723575581898    7.17095015118665    1.52748814283841
C           2.70446492203999    7.14126869303716    2.89118473851669
C          -1.97467927000178    7.45812963241615    0.07997057326027
C          -2.19540457564021    8.04772877126457    1.34117590114718
C          -3.12347190734778    9.13839603344034    1.53211100841466
N          -3.17292406070110    9.76384439567552    2.72369905732167
C          -2.43693227467168    9.33073826846365    3.71036687025338
C          -1.65996704151091    8.12717091361821    3.56599204746506
N          -1.56719113181268    7.53241179330873    2.41008161536380
C          -0.94724806403014    7.58039941391293    4.66092151098161
N          -0.32731349270740    7.17616009535287    5.53570625117147
C          -2.42915055971834   10.03231681829556    4.94133419640546
N          -2.39320295955717   10.56145630456395    5.95676089183082
C          -3.94208702069055    9.60483720142425    0.48780568221711
C          -3.75881854757426    8.98765680330485   -0.75990252430322
C          -2.78041352611173    7.93895442157876   -0.96608211601576
N          -2.77895009247590    7.51686146407604   -2.23641197917873
S          -3.89621777200792    8.31846429084950   -3.05420252907998
N          -4.44642637013541    9.24438367036787   -1.87771698126307
C          -4.93369978434706   10.64458035230412    0.67454554777415
C          -5.73876856169928   10.71087878770523    1.80307501634821
C          -6.77931455100708   11.62777410515730    1.94139440958871
C          -7.09020995849461   12.55833121054495    0.95694978885754
C          -6.22012725319966   12.57805106049184   -0.15915647475108
C          -5.16629788448487   11.62885187940149   -0.30952419838196
N          -4.52192770536647   11.92924530720514   -1.44749636060657
N          -5.16630819388794   12.95755509797362   -1.91985152618623
N          -6.18111784185808   13.39102293146746   -1.22303492806844
C          -4.78232891411272   13.58076267982673   -3.14851826498478
C          -8.15824085475541   13.51134001600681    1.00421945480117
C          -9.37616182864242   13.38759538728650    1.59487588481044
C         -10.39336804281280   14.42973807319931    1.62206336395119
C         -10.18497123851589   15.76723821556579    1.41612086535526
C         -11.20490064008662   16.74044194595682    1.47400647225388
N         -11.99405609405026   17.57388006653574    1.49487543216659
C          -8.93398159944000   16.36722033997511    1.15547230787295
N          -7.95686001316423   16.93964198948432    0.96571837726106
C         -11.66005645347006   13.81218011600007    1.98997321976270
C         -11.42636143799506   12.43580118119637    2.26707614090332
C          -9.99914985301526   12.12233504748499    2.07870177583427
O          -9.48107516463538   11.03832974391351    2.23420797374810
C         -12.43148136686519   11.59365477771576    2.64687302052373
C         -13.74421084151033   12.10004780917543    2.76922101188291
C         -13.98905790952578   13.47511394852887    2.48648411010592
C         -12.92755858020304   14.32256606194030    2.09485032087586
C         -15.30454328108100   13.96808133968116    2.60672516007141
C         -16.32850352101165   13.14521681310553    2.98947472135172
C         -16.08562939059055   11.79193886175637    3.26899608783655
C         -14.82090330819472   11.28064881130322    3.16158917122776
H          -1.75448099865176   -1.16407306679313   -0.30996913890329
H           3.12380327369540   -2.19790235720120   -0.33467001001200
H           2.62301912460549   -4.55769008185928   -0.12094586453067
H           0.99050152932782   -6.39024779550757    0.08012986381343
H          -1.42473850691368   -5.90741793220868    0.09477909734078
H          -2.22713107972262   -3.58567672625628   -0.09296137603392
H           2.65285552658485    3.22616675270978   -0.00485405442552
H          -0.62146574393185    3.48129299202410   -1.80676817211451
H          -2.10134930193044    5.37921398651638   -1.61653960992719
H           3.63290304565766    6.57521330815454    2.89307171885628
H           2.23755853243188    7.08987550096308    3.87723087034330
H           2.89122752418030    8.18567812759898    2.64504939033464
H          -5.58228681974351    9.99524636424688    2.59438281858635
H          -7.35491499881325   11.61007708749472    2.85120698384771
H          -3.79857370195983   13.20911612058564   -3.42477027479410
H          -4.76176075541591   14.66158097498947   -3.01413836711945
H          -5.50199982659282   13.33830176863913   -3.93220052790422
H          -7.96048828943728   14.40546412715676    0.42381564308002
H         -12.22563695444054   10.55367597980909    2.85295004787029
H         -13.14648311560231   15.35669424050167    1.88110517732012
H         -15.48666678793031   15.01089769329161    2.39217212090510
H         -17.33224231254548   13.53268429885852    3.07953252858582
H         -16.90555512432711   11.15691141099775    3.56957765858778
H         -14.62718122863510   10.23962430765200    3.37537595937661
