141
 SCF done       -265.071281848884          0.000684219799
C           4.10983983127522    3.66899006272866    3.08302143029317
C           4.48641421295391    4.93857109464950    3.44020610593264
C           4.80287923740985    5.32922858432991    4.75521296507941
N           5.02855423732857    5.71501216756696    5.81311836777905
C           4.65190019706716    5.97972861737443    2.50522080592646
N           4.83700404841343    6.84576233268849    1.77469125135164
C           4.22526661406371    2.48719181318973    3.93065597999998
C           4.23227195056353    1.33277611331608    3.09417406510879
C           4.37930116686742    0.07715399743220    3.60773761735873
C           4.51293525162736   -0.08465320618756    5.00564771985690
C           4.48636391680115    1.06391150888476    5.84836209656929
C           4.34450936391154    2.35429808251779    5.28741483963691
C           4.60956723593018    0.88664431116569    7.24126812143876
C           4.75636181106027   -0.36341835274065    7.77805585040068
C           4.78610500972018   -1.49330605148716    6.94739433313599
C           4.66738605718250   -1.35663634717226    5.59083866883986
C           4.04482911954831    1.74668906996049    1.69105727952843
O           4.04480783303370    1.05109803428518    0.70165440621308
C           3.78636256131648    3.21431486576415    1.74880738870674
C           3.20561894977236    3.81971396667823    0.67600521406186
C           2.50430732190765    5.04679160625690    0.60582992306518
C           1.96769481649062    5.80719744334988    1.61795678039076
C           1.25223185029804    6.93176818517467    1.17087692343825
C           0.61428440088918    7.91291062491564    1.96679378795097
C           0.78357408263988    7.91723291800905    3.40239290604757
C           1.93670517443706    7.68684458949228    4.10251506992655
C           1.76994348004886    7.76676104823348    5.49791768039944
C           0.49292992261994    8.05541769436526    5.87171159851942
S          -0.53590568224647    8.25229101604626    4.48820441761546
C          -0.05465780367106    8.21517587681992    7.24393060999701
C          -0.13830284633185    8.85956849916969    1.28913591047192
C          -0.21462601926373    8.91314904577922   -0.12728068839159
C           0.51339649934560    8.00006997570035   -0.92785417805731
C           1.20073027811520    7.00250257236897   -0.24607595902522
S           2.10301780361612    5.70371308973791   -0.96924742801516
C           0.52597397104147    8.12625987404986   -2.36598563270401
C           0.56551097168692    9.27648528852697   -3.10900928390372
C           0.56195423316973    9.04493549749090   -4.49616327634202
C           0.51351218953280    7.72399663745067   -4.82557429137800
S           0.48965621059061    6.72833239874346   -3.40752224843510
C           0.48704408956888    7.10920565077095   -6.17749185716105
C          -1.09077932332203    9.92383973732542   -0.56335142168815
C          -1.64112792432318   10.66390091531725    0.45586848388737
S          -1.09127605191744   10.11956500334891    2.02616173330100
C          -2.57550220857912   11.73934192371929    0.37139421392457
C          -3.09221789591144   12.27032977606458   -0.83477082908946
C          -4.09377003849302   13.30882864588116   -0.85351299050165
N          -4.55924858338564   13.74287602033909   -2.04423025526912
C          -4.10214040752119   13.23968731673989   -3.14246100865984
C          -3.10149468777569   12.24047705382165   -3.12460798611610
N          -2.63184978913606   11.78794644968639   -2.00925174057310
F          -2.60097923203183   11.73453934903859   -4.25368403511412
F          -4.60565595622539   13.70244390894144   -4.28900634313435
C          -4.61021700617682   13.88254996227989    0.33315564375864
C          -4.05125646425787   13.38881113831309    1.52979397960203
C          -3.06409611266449   12.34223962555828    1.54884050699105
N          -2.69973262161141   12.03157718785171    2.79325895302724
S          -3.50663116760978   12.95544373173539    3.82823268644443
N          -4.36163994130721   13.79560512606342    2.76115504354038
C          -5.64635578440574   14.86236322621806    0.38289403361835
C          -6.33968338613378   15.42547847026766   -0.66135240220467
C          -7.35318784097056   16.31519399094807   -0.26395044634593
C          -8.23038490436294   17.05099216383459   -1.09663838591438
C          -8.22817851840901   16.92629408923322   -2.53600583062353
C          -8.45637152450012   17.90612937742587   -3.46612446444489
C          -8.40899135650495   17.44050817788229   -4.79247535721014
C          -8.16487571124263   16.10361723421045   -4.89143980662476
S          -7.97618755246670   15.39093127219841   -3.32656077327202
C          -8.03637348097400   15.26887753588510   -6.11299240471327
C          -9.12476901716946   17.89420817358473   -0.44505747905179
C          -9.18042645209768   18.03255407470589    0.96869570202800
C          -8.27075537135081   17.32486170732603    1.79481612092853
C          -7.40192357157184   16.45775893975641    1.14862973963870
S          -6.20873437522334   15.45228288562409    1.92977665647756
C          -8.25747536502735   17.52409078146599    3.22534941701113
C          -8.42060960596930   18.69707129479815    3.91311940590343
C          -8.32640872114167   18.54283085697886    5.30795125813398
C          -8.09976662638640   17.25735248947870    5.69680340626788
S          -7.97977417497942   16.20284872552484    4.32709234437542
C          -7.95205372448155   16.72129576675864    7.07498356641356
C         -10.24789989682798   18.84647998265518    1.38468606234320
C         -10.99666173622742   19.35728070383180    0.34986719819664
S         -10.36795292606977   18.83545990053413   -1.21193141102661
C         -12.12920707068811   20.19974883594717    0.31514798955632
C         -12.91422550481722   20.71145635217902    1.31120044721566
C         -14.07255661370385   21.55681570458007    1.05386432847844
C         -14.38983580702662   22.19268488784778   -0.11850081736508
C         -15.52564096769021   23.01329619086984   -0.28498597451831
N         -16.42972545355752   23.69059441063862   -0.49096573078009
C         -13.63533331737074   22.17612789627254   -1.31110117048597
N         -13.08441529541300   22.24357733125558   -2.31702714735623
C         -14.82494270348540   21.67791138291863    2.29708437553047
C         -14.09340927616551   21.02599141697704    3.32780144273638
C         -12.85683925722109   20.45160400592457    2.77093588929497
O         -11.99106737888978   19.89273686405343    3.41401930664007
C         -14.54296298338624   20.97593824261242    4.61550923419227
C         -15.77725874946908   21.58287871385323    4.93690236897357
C         -16.52011846708974   22.23345030773500    3.91006865399921
C         -16.02513598415553   22.27179921836634    2.58604789568590
C         -17.75141069361019   22.83485999525874    4.24103142725710
C         -18.22779871973418   22.79567142435480    5.52317453335131
C         -17.49653384373217   22.15234029927634    6.53278164710990
C         -16.29706046926362   21.55936957835993    6.24589734840922
H           4.39325693213284   -0.78397181914955    2.95632605354931
H           4.32245572228611    3.20773607000165    5.94749219818846
H           4.58973556341447    1.75996190180544    7.87671607346818
H           4.85117866691285   -0.48839265380405    8.84636067821754
H           4.90311695727924   -2.47236701369293    7.38740510856579
H           4.68925275923855   -2.22302359446836    4.94604999167462
H           3.21325141284493    3.23061174410742   -0.23621769448885
H           2.01648029513550    5.52639753241691    2.65441144961476
H           2.88711448358393    7.52781667428246    3.62598395262380
H           2.57460697270292    7.61312754525996    6.19503394940545
H          -0.88628318345628    7.53100039002956    7.40968292827137
H          -0.42421894042828    9.22943454344132    7.39262020032361
H           0.72102590116102    8.01276768307594    7.97815003076742
H           0.64163206640513   10.25606503375648   -2.67325056069927
H           0.58962048794598    9.83366569526634   -5.22657713324947
H           0.46069273471077    7.88577001937163   -6.93805020203039
H          -0.38892550952462    6.47176064026615   -6.29327254931718
H           1.37063514685214    6.49103138557672   -6.33557763475819
H          -1.34558404994952   10.09203235554588   -1.59099229484625
H          -6.10148176944022   15.19458683917219   -1.68012854248621
H          -8.60946675210776   18.93928443606683   -3.21183973851770
H          -8.55096350940791   18.07786901879303   -5.64696929338476
H          -8.13830202834768   15.88834914673785   -7.00058901880920
H          -8.80361772570090   14.49475027875671   -6.13404981522680
H          -7.06534024823776   14.77457888062880   -6.13414234387955
H          -8.56041674328556   19.64859826347935    3.43331129809146
H          -8.42563253314546   19.36007168766576    5.99997905934424
H          -8.05861958066806   17.52464035291634    7.79991683753319
H          -6.97435435447158   16.25752975409665    7.20348170604577
H          -8.70836408742772   15.96309542972530    7.27596784907797
H         -10.49385497367099   19.02975192406898    2.41359217945125
H         -12.42770498089680   20.44956640235821   -0.69666100091427
H         -13.96479125382449   20.47564744704956    5.37830239644782
H         -16.61591478411513   22.76653043570874    1.83194410862911
H         -18.31073614618629   23.32939412941012    3.46043187715626
H         -19.17157476894853   23.26032103072691    5.76653051436481
H         -17.88835532909173   22.12891650061868    7.53871882941746
H         -15.72900080808606   21.06248595974218    7.01890644881493
