135
 SCF done       -247.000454987522          0.000633583446
C           2.54624432704410    1.39166255202822   -2.52994055853088
C           2.96488955954427    0.78978933690708   -1.37170012384359
C           3.72642479268591   -0.39766050876364   -1.33294292618385
N           4.34843133054557   -1.35663605526687   -1.22438353966957
C           2.68034854835019    1.21165631790138   -0.05514562343290
N           2.48794852101065    1.45659272654572    1.05070194772875
C           2.78292561448948    0.87000713197098   -3.87072292257808
C           2.05602675416230    1.66786350998164   -4.79663997062412
C           2.07365225021885    1.41698653980354   -6.13820365610238
C           2.84114698338283    0.33624195138387   -6.62649851696465
C           3.57792988383257   -0.46425730362887   -5.70696080902004
C           3.53667423378661   -0.18102493949092   -4.32248979109319
C           4.34329488514399   -1.53878629216076   -6.20413777362529
C           4.37988708486902   -1.81136216088367   -7.54442176883534
C           3.65408854775167   -1.02218070217837   -8.44910078033788
C           2.90106540321210    0.02843028994781   -7.99986192422174
C           1.34074711246986    2.73616825505649   -4.07663812600218
O           0.58704405274885    3.54140163051186   -4.58407543272329
C           1.74092236042971    2.59972336303100   -2.65379334276671
C           1.52344411535190    3.45905153101078   -1.61324443316620
C           0.78546939595838    4.66000149506163   -1.51902322562672
C          -0.03313802499097    5.32133943405802   -2.40309419181531
C          -0.59977296852167    6.49949957536162   -1.88215128401954
C          -1.51452349413448    7.36986609560089   -2.52115569110237
C          -1.90714267181665    7.20525587891224   -3.90275869148172
C          -3.13832389140099    7.41961572377483   -4.46225583934763
C          -3.15846964585623    7.21895272141104   -5.85436102941931
C          -1.94587018602831    6.87195505512488   -6.37021485323277
S          -0.74744279184897    6.76793758554389   -5.12829485908796
C          -1.58690878416559    6.59310944646674   -7.78498232711244
C          -1.99935111832750    8.42368628605689   -1.75551644498679
C          -1.59124146293883    8.66988112680376   -0.41786854791285
C          -0.69406840222479    7.79044149484170    0.22871158375221
C          -0.21160787932918    6.73273479889933   -0.53398159117270
S           0.86990972941429    5.49707522150852    0.02938063339782
C          -0.33550541727706    7.97339894380309    1.61749092448097
C          -1.14566289372703    8.35232332723377    2.65330827766040
C          -0.47886536787650    8.40441644829347    3.89172409961650
C           0.83992802708075    8.07507197275025    3.81217563964611
S           1.28528899782122    7.67757447201238    2.18585390559945
C           1.84730159136166    8.01757895327597    4.90237500665343
C          -2.14153624902818    9.86959053006118    0.08313279547227
C          -2.97066365531516   10.49858495261201   -0.80522908716723
S          -3.10958995446295    9.64625604251379   -2.31845794615613
C          -3.69220735081984   11.71472787326840   -0.58202046344875
N          -3.47022201519471   12.39317801580125    0.53316746390994
N          -4.08394534865595   13.50136988389436    0.81424569426564
C          -5.00674401470922   14.04607690906019    0.03824587349404
C          -5.35323355072193   13.40623154058936   -1.18729668060975
C          -4.65094561714260   12.20328803484822   -1.51310615717083
N          -5.03502914199438   11.69123672346821   -2.67669118985099
S          -6.17650075023886   12.63734207535268   -3.30189039198136
N          -6.23610207515977   13.73696370524373   -2.12562339502549
C          -5.61705774859928   15.26144346955989    0.47993010327495
C          -6.65192361410672   15.93634559242666   -0.10467645892542
C          -7.03108405207455   17.09765086062981    0.60345732199552
C          -8.08603761265122   17.98323569927569    0.29967571232009
C          -8.99669122192297   17.71405415879549   -0.79247070516076
C          -9.54829334410380   16.51528686674432   -1.15432927318578
C         -10.40806982702024   16.61084736265704   -2.26490324700012
C         -10.51162373795022   17.87473003175633   -2.76124268940877
S          -9.54905759773830   18.98613834509134   -1.84581918028355
C         -11.31270650435965   18.35073187365372   -3.91898889333561
C          -8.21529800192880   19.10072235467591    1.11752944442297
C          -7.36971832878373   19.33585220855469    2.23585818482158
C          -6.34408688360686   18.41782569142755    2.57595133723295
C          -6.19885122297495   17.32176276578644    1.73408070253431
S          -5.03172932120185   16.03585313660879    1.92706409091972
C          -5.49890087874239   18.59198824714036    3.73570661204936
C          -4.16727763341849   18.30083135441853    3.85994817398949
C          -3.65502352335495   18.55849964881651    5.14496338663694
C          -4.58704324907522   19.02975564662245    6.01880036507001
S          -6.13237632844731   19.17935607034361    5.25250133605122
C          -4.41348872042029   19.41127027832925    7.44390222234011
C          -7.70084489629544   20.54113155458339    2.87067061785397
C          -8.78407034617061   21.19941491863222    2.31500149711877
S          -9.43091844799908   20.33402597134865    0.94000371912484
C          -9.24513308555670   22.42305989906446    2.84290085975986
C         -10.30813794832315   23.20391070473979    2.48499187100313
C         -10.68625404487292   24.45488318209179    3.12006907000836
C         -10.01191339922234   25.12146102490206    4.11107026886886
C         -10.43672892569207   26.34537880267474    4.66966143643654
N         -10.72213637618846   27.33820811708735    5.17105724633687
C          -8.80400924939879   24.71511978423818    4.71512660740857
N          -7.82376726569013   24.46765803708470    5.26121026215280
C         -11.92510909652993   24.90962369877002    2.49679875684128
C         -12.28745675063926   23.98390466807358    1.47749106310543
C         -11.28959822707069   22.90334688041031    1.42560507520544
O         -11.29247901275192   21.95685094028807    0.66242364099164
C         -13.40893497221795   24.14570041707860    0.71693965459196
C         -14.24117626075651   25.26395324089234    0.94734560534988
C         -13.88929893682317   26.19384315105722    1.96748937240086
C         -12.71913335925359   25.99980398326250    2.73721401682412
C         -14.72821119080624   27.30423934918384    2.19231173759622
C         -15.86024729537831   27.48913486141909    1.44617090937058
C         -16.20536634530063   26.57305987410002    0.44145602499435
C         -15.41292280872732   25.48427353264976    0.19730236477420
H           1.50996639245904    2.03771969658803   -6.81886255208242
H           4.11034326489382   -0.80346304273979   -3.65479372555043
H           4.89940143106332   -2.14408582704545   -5.50336980850281
H           4.96855012247981   -2.63704742674701   -7.91530909421732
H           3.69490343321685   -1.25100942859895   -9.50362173026772
H           2.34011854976618    0.63962941355348   -8.69187297512134
H           2.01377712498559    3.20322182163094   -0.68068822321224
H          -0.22325950323625    4.94526198364582   -3.39063094206937
H          -4.01152869464550    7.67319601399127   -3.88917877015741
H          -4.04408595042420    7.32910843259064   -6.45481780865828
H          -2.47498439086107    6.63524937484084   -8.41108656767036
H          -1.13497224716748    5.60610714584186   -7.87572391571626
H          -0.86513654766309    7.32404213286119   -8.15004321926540
H          -2.19760084669528    8.54274374828495    2.53930572875137
H          -0.96369360168527    8.67605788269841    4.81258809132144
H           2.70555066437080    8.64633319396262    4.66810968100564
H           2.20907468017465    6.99794374918671    5.03505257039744
H           1.40513012063587    8.35700553013750    5.83592947079085
H          -1.93120532970296   10.28881400673079    1.04885135274750
H          -7.10497156468748   15.61130234118124   -1.02280074896268
H          -9.38061222908538   15.60228802821188   -0.61165007420468
H         -10.93491646387640   15.76932930684228   -2.67921529554051
H         -10.66461417483540   18.76279228827015   -4.69229766670333
H         -12.00096059653213   19.13637488747183   -3.60949307731030
H         -11.88363396235012   17.52739965084250   -4.34168552007964
H          -3.56207566857140   17.94989933019870    3.04444182209236
H          -2.62613884992459   18.39743351369494    5.41332425371385
H          -3.39560636542765   19.20113288023932    7.76317171940506
H          -5.10465768032912   18.85780379108924    8.07875113583011
H          -4.61327788784929   20.47375963282483    7.58341829603804
H          -7.16770845985842   20.94639286539734    3.71167766344939
H          -8.64514314352636   22.76772367542091    3.67679598912724
H         -13.65897198149025   23.42773338184999   -0.05006682682155
H         -12.48406647910983   26.72199180545073    3.50250495707468
H         -14.45801455031927   28.00699778927615    2.96683531002999
H         -16.49637682685872   28.34279370383392    1.62624815447642
H         -17.10230212014264   26.73424591464176   -0.13780782480571
H         -15.67374145343887   24.77518903745030   -0.57484799263183
