138
 SCF done       -249.959754536513          0.000702254899
C           4.84681717992866    4.10772839358151   -4.22365876507320
C           5.48566321435302    3.28493170200897   -3.33119542396955
C           6.46621996543733    2.33751259853749   -3.69370692688028
N           7.27086321454327    1.54918638670108   -3.91618359648247
C           5.26812031092881    3.23909713603234   -1.93867700600158
N           5.15292613051710    3.12750536983603   -0.80077860279443
C           5.07365460301964    4.11543465762902   -5.66586228904513
C           4.20332156411386    5.07473913814709   -6.25640735007442
C           4.17933737131817    5.30359225658576   -7.60139253079538
C           5.04720068123599    4.56853824640976   -8.43910117428230
C           5.92612340042956    3.60961115920791   -7.85832751155386
C           5.92557343554339    3.39432771734724   -6.46049532075942
C           6.78992412804653    2.88329414625982   -8.70312564207792
C           6.78570476901596    3.09168783405414  -10.05561640635611
C           5.91842631806547    4.03517658212671  -10.62606510552416
C           5.06774046716931    4.75822111802134   -9.83463315655408
C           3.40147219581281    5.71656259535114   -5.20382242831982
O           2.55715610935140    6.57602739755032   -5.36892624081844
C           3.82872622448253    5.10321416075682   -3.93251476990335
C           3.35335982495273    5.41565386026018   -2.68908761121741
C           2.37645117547843    6.35044964716016   -2.28809635241161
C           2.01338716579080    6.49163670779227   -0.95902122866608
C           1.02033868202722    7.45454966993597   -0.73162645465226
C           0.41669649626493    7.81931955621532    0.49899265763065
C           0.71629751191814    7.11002791017996    1.72110268465097
C           0.89744430915599    5.76349601446953    1.89681979148418
C           1.16256389414361    5.40758669975654    3.23151500543479
C           1.19407961810378    6.47333769705708    4.08018407751875
S           0.87565724889666    7.95249969373146    3.23879458513932
C           1.45028397775352    6.48276038845209    5.54327631042245
C          -0.47930300302006    8.87882187461257    0.45117443204275
C          -0.83282077424031    9.53713681958742   -0.75535339635810
C          -0.28225273385669    9.13076355436281   -1.98947793019498
C           0.65619763565597    8.10708827296945   -1.94104852314740
S           1.48910116796424    7.45001492176928   -3.32046832891065
C          -0.69664595466791    9.74601378284845   -3.23272413237984
C          -1.96150263867751   10.08846050720920   -3.62527332201238
C          -2.00761045452992   10.67513978437213   -4.90446893690224
C          -0.78391380667467   10.79115751823479   -5.49004604823928
S           0.46111329607484   10.15499165536047   -4.46742421815049
C          -0.44494013253492   11.36456444990799   -6.81871415468976
C          -1.75070055241367   10.57790822751460   -0.52552944125563
C          -2.13321242593016   10.71037532683058    0.78798641587825
S          -1.32661569298638    9.55373407806327    1.81976690669188
C          -3.10974764957883   11.65362144541506    1.22009391712610
C          -3.76697322173855   11.84179478815189    2.43320472977665
N          -3.40758494705137   11.12646724565965    3.60582219667373
O          -2.22598591659740   10.88274462588848    3.77325639617006
O          -4.28554994370473   10.80441138117803    4.38276397316406
C          -4.79457605518063   12.82459865982257    2.40738371735955
C          -5.62392813930522   13.21626602701273    3.58273752355706
C          -4.90743160511568   13.40609652798813    1.16143643330284
S          -3.77890975821710   12.71672314804483    0.02743101090619
C          -5.78255774407510   14.42556194913973    0.67405272485666
C          -6.68143506210923   15.22481578200536    1.32196197245338
C          -7.36397955677148   16.12468238364362    0.46600900572176
C          -8.36044600659177   17.05797429978265    0.81916687268499
C          -8.89976094811805   17.10934368749959    2.16207115487232
C          -9.23343236386742   16.06102915089126    2.97458077294747
C          -9.75609760438440   16.46424220536876    4.21877494324918
C          -9.81851694647661   17.81582579394110    4.36729439752975
S          -9.23473566749379   18.62621096190911    2.95117414237229
C         -10.30768683831830   18.59834367718232    5.53139712710392
C          -8.80485731365632   17.89948072746323   -0.19548141800499
C          -8.35300697848032   17.80453749186781   -1.53984564351038
C          -7.41441113772664   16.81161590037663   -1.90944261610181
C          -6.92478780324940   16.02183252475212   -0.87709295748675
S          -5.73504141139484   14.76309043775352   -1.04710335472596
C          -7.01247946146328   16.63055806370099   -3.28503116924641
C          -7.78024011477406   16.72348020992412   -4.41479574688822
C          -7.06505805145876   16.46143880164270   -5.59786481144375
C          -5.75092019754289   16.17409655556136   -5.38682132585213
S          -5.37019191284724   16.20886015793644   -3.69720194217527
C          -4.69753859847384   15.85828443591811   -6.38605789544992
C          -8.92686902861634   18.78759989200307   -2.36631076416857
C          -9.82905445700525   19.59948413298666   -1.72170366616092
S          -9.98106976946124   19.16353006597440   -0.01904270077072
C         -10.62051464193521   20.68663564694843   -2.15493036394988
C         -10.77463912234489   21.27449432035089   -3.38003265837704
C         -11.64341728723573   22.42239468124214   -3.61232372887971
C         -12.49637803096274   23.01945566397329   -2.72022435626389
C         -13.31914350468285   24.12276731923149   -3.03435678836399
N         -14.01513397498731   25.01855617278807   -3.21127310855945
C         -12.72433494565075   22.64573341490245   -1.37839752221712
N         -12.99041669960147   22.42761861542976   -0.28199328970001
C         -11.47974068045401   22.83644747120056   -5.00168080439839
C         -10.57884832215046   21.93757330201993   -5.63558426864222
C         -10.12836385028871   20.92366559598058   -4.66868509060770
O          -9.38745869439093   19.99475800947727   -4.92324999303324
C         -10.22913643217763   22.06457089635588   -6.94889725074634
C         -10.77372266351582   23.12491009343413   -7.70615722969755
C         -11.67401319150660   24.03384637090559   -7.07959246412173
C         -12.01828815830352   23.87336166603623   -5.71769057579739
C         -12.21147600149119   25.09032744249221   -7.84294129969701
C         -11.87716402452425   25.24259856458805   -9.16098704441101
C         -10.99014200821398   24.34681463414664   -9.77657210073912
C         -10.45013634207349   23.31050282012274   -9.06452431677952
H           3.50625296108963    6.03710550354196   -8.01993117157524
H           6.60388752794332    2.66047905884132   -6.05572875530436
H           7.45585417725689    2.15737908709897   -8.26006563768835
H           7.45121363255086    2.53005725025058  -10.69394351170945
H           5.92770005812902    4.18620471982315  -11.69522125960226
H           4.39726273300023    5.48648995787600  -10.26724141766303
H           3.77480253173254    4.86941863257032   -1.85348028704570
H           2.48195960576309    5.92009656864529   -0.17778247479179
H           0.79175302817696    5.04550796484355    1.10333495119783
H           1.32437735713868    4.39368285359176    3.55185060252523
H           1.62132251670918    5.46961444615999    5.89895056557673
H           0.60020937484635    6.90660828263704    6.07713248019873
H           2.32411335018523    7.09058897819092    5.77657140589221
H          -2.83773634137303    9.88187984790115   -3.03693093651718
H          -2.92044148101134   10.99725061072133   -5.37384905687667
H          -1.35144540225331   11.67086413681622   -7.33542558573297
H           0.07902451079407   10.63013691335088   -7.42918878476923
H           0.20712968816926   12.23096313830357   -6.70879046374804
H          -2.11715419175811   11.22517448193411   -1.30208163313454
H          -5.43823852744611   12.55889193327544    4.42644588444525
H          -6.68022919742838   13.15103603688805    3.32799824263127
H          -5.40088281411490   14.24167861730436    3.87637257678056
H          -6.83906883909806   15.21906033365335    2.38184162595152
H          -9.15520035776776   15.03251889933276    2.66979632722087
H         -10.07917360090975   15.77244058638843    4.97643557905728
H         -10.62953924444453   17.92620342389800    6.32315758962390
H         -11.14736624580728   19.22969440309571    5.24198351016941
H          -9.52233722409374   19.24767698062966    5.91739744375961
H          -8.83419365202612   16.93178594136348   -4.39978856807291
H          -7.51381613219489   16.48670289343064   -6.57480862016452
H          -5.12791042940456   15.82967313998096   -7.38413503691067
H          -4.23966197089067   14.89364053528659   -6.16926411954086
H          -3.90971447923954   16.61116461056650   -6.36484431777685
H          -8.67172851482725   18.92108692842440   -3.40030325954105
H         -11.20035887928187   21.11906127565988   -1.34797021068451
H          -9.54292676671798   21.36469560368778   -7.40250782248758
H         -12.70064387285449   24.58188632385114   -5.27681710368358
H         -12.89428032115740   25.77735441528449   -7.36493442733210
H         -12.29458368306907   26.05475510614615   -9.73713976644495
H         -10.73703890912937   24.48216345498126  -10.81755011973020
H          -9.76632630593560   22.61740306894733   -9.53263972174175
