143
 SCF done       -263.138062875863          0.000727043852
C          -7.99543950047146   11.16706784774449  -11.86442969120352
C          -8.76661138211051   12.26112583944116  -12.15839876263961
C          -9.34637950554869   12.49825702922858  -13.42304413125839
N          -9.85130619281986   12.75256971424615  -14.42227492998397
C          -9.06578299929979   13.33059908816143  -11.28697023492168
N          -9.34474294580991   14.25458583109507  -10.66432573028868
C          -7.61394450542209   10.13423110496595  -12.81973214319913
C          -6.66420609268542    9.27819058320839  -12.19694533375183
C          -6.10927022432151    8.21606491435453  -12.85033186504395
C          -6.49356258067207    7.95105944627923  -14.18353641678219
C          -7.45147030561586    8.79769092189999  -14.81233015335232
C          -8.00473724379003    9.89331756255189  -14.11043946006912
C          -7.83211509537127    8.52121460233430  -16.14133224668526
C          -7.29316328950474    7.46112863407103  -16.81809106465480
C          -6.35004611411699    6.62816145292816  -16.19777831695463
C          -5.95858065336557    6.86826653099428  -14.90864232537695
C          -6.42544335718317    9.72394041743924  -10.81321001513018
O          -5.63203450483847    9.22369764593796  -10.04233683836311
C          -7.35082278747568   10.86396211493371  -10.59327626610318
C          -7.68865110265325   11.48156017698753   -9.42171711824538
C          -7.18751612507780   11.33966502572549   -8.10842398482482
C          -6.11470171327686   10.64972077736958   -7.59607131813870
C          -5.95916493556466   10.78963964117558   -6.20560662697274
C          -4.94943681354538   10.21561532315137   -5.39314214082143
C          -3.85487374755225    9.44814987426916   -5.94519559565713
C          -3.26580543822631    8.32590034198201   -5.42830973221175
C          -2.19120287791403    7.85353084616545   -6.20401647251457
C          -1.93852155601127    8.61672611349725   -7.30362925701312
S          -3.04668074279512    9.94041649670903   -7.40933097657740
C          -0.89364707640046    8.42742441225560   -8.34279555763972
C          -5.06031984096526   10.44486104714001   -4.03014120678154
C          -6.08116833677224   11.24649452290252   -3.44957961180840
C          -7.05650946319346   11.86872618192807   -4.26420734717799
C          -6.97708317354726   11.59546495124650   -5.62734539759051
S          -8.05383106233946   12.20762012786007   -6.84375592793711
C          -8.06373590540291   12.74664887063295   -3.71901231095839
C          -9.36974186065782   12.88767700248541   -4.11320537779797
C         -10.07289238305533   13.85103624989538   -3.37089669481020
C          -9.31212556046569   14.46954244331810   -2.42214204633248
S          -7.70034905422281   13.85496672408576   -2.42024041750910
C          -9.70893511272166   15.50849493744627   -1.44139532838692
C          -5.97919512199645   11.29878448409798   -2.04774846709790
C          -4.90318122700823   10.60543882099789   -1.54823708361372
S          -3.96737508218035    9.83473136060236   -2.81292864620904
C          -4.56458670263838   10.48047622643816   -0.18556766053314
C          -5.23913207942953   11.04900714303182    0.90501671777319
C          -4.64016726532638   10.71031150407269    2.17166904224285
N          -5.13914234671900   11.18222129330960    3.31574237895685
C          -6.20070181893502   11.95664776515118    3.23776417096713
C          -6.73790583032252   12.48630330369047    4.51177814691401
O          -6.23508500428026   12.24321794527392    5.59198429410474
C          -7.93014463562157   13.33718597811828    4.37656770388301
C          -8.49924151559174   13.63406313378281    3.20254526503878
C          -8.00312522438189   13.14458968799729    1.90757571810253
O          -8.55094644465938   13.43135164810470    0.85879400852614
C          -6.80419014631140   12.28187278786796    1.98121733806615
N          -6.31848179426879   11.83022453891305    0.84352648847448
C          -3.51480563640106    9.88517258398616    2.04160735755534
S          -3.20793606187379    9.55441537458020    0.36805004491950
C          -2.71709283655622    9.37284732541162    3.08602913428927
C          -2.98127763988370    9.48201874666197    4.43004900960616
C          -1.99992691455937    8.88898511473212    5.24613513276167
C          -1.99855654761171    8.79263052748788    6.65784787715308
C          -3.02065082817865    9.43470211271221    7.44855343684227
C          -3.62781865309739   10.64493441432388    7.23712675474625
C          -4.59540401092796   10.96127837477540    8.20574828807090
C          -4.74220844831661   10.00094637859428    9.16079116274459
S          -3.65835764920319    8.67745652951076    8.88662488719313
C          -5.66436398515987    9.98563095275871   10.32495207903676
C          -0.96114901617981    8.05450284980649    7.22044578168830
C           0.07535869527639    7.45190305229087    6.45612608955366
C           0.07653639899791    7.55770624575087    5.04262196471427
C          -0.96425224331998    8.28394864735599    4.48365535534174
S          -1.22588883726624    8.50857670368518    2.77179519791983
C           1.08725410077897    6.93541224103222    4.21662836071038
C           1.66368399363155    7.43241090944005    3.07846195115595
C           2.58912634245113    6.54964139204121    2.49268180247235
C           2.71255789072955    5.37005399925614    3.16303606285202
S           1.68595564609200    5.33407082325212    4.55428987847174
C           3.58078895709317    4.20827820129720    2.84033043760267
C           1.04746106632648    6.83942116961039    7.26623990630176
C           0.78422367220991    6.92702737421884    8.61323675901557
S          -0.71268983795461    7.80412630720079    8.91936640010431
C           1.46929151439821    6.46139629191451    9.75753141435400
C           2.63362061721086    5.76070779185146    9.90931266523264
C           3.16315554945106    5.36829530778547   11.20990063041631
C           2.66335449852476    5.68574310418327   12.44667868772888
C           3.24381455293791    5.26657444050598   13.66329044310562
N           3.65353410225589    4.96521031223717   14.69284214856922
C           1.52717559602766    6.47322346144947   12.73197765505487
N           0.63099604996571    7.10206301542204   13.08107723515260
C           4.36570863695202    4.57374231148761   10.98500999267324
C           4.60243167119263    4.50171152255744    9.58493913529358
C           3.55456683367268    5.24522227792718    8.86574539309254
O           3.49938035365488    5.38689515767325    7.66078571267275
C           5.66672096970026    3.82519503402198    9.06264632053288
C           6.56396110183700    3.17279201476330    9.93673277729433
C           6.33416843297251    3.23682722910270   11.34106856595560
C           5.22249654789202    3.94597241829290   11.85086286830179
C           7.23501210385436    2.58324256118579   12.20652817282918
C           8.31159236968826    1.89987923489812   11.71048976943194
C           8.53671118957556    1.83751008002995   10.32715922016657
C           7.68132199396528    2.46016225019292    9.45924499283082
H          -5.38800499914863    7.58361994144184  -12.35402492128146
H          -8.73125989020427   10.51120675105581  -14.61342823006143
H          -8.55775117980820    9.16597282936138  -16.61518542789144
H          -7.59095340648049    7.25814025917638  -17.83592533404064
H          -5.93584208461585    5.79526262552087  -16.74624755396257
H          -5.23300937540319    6.23028571925430  -14.42519885950850
H          -8.50185674122321   12.19630727107449   -9.48059760714371
H          -5.47812990021353   10.04807468109331   -8.21690355418339
H          -3.61741445445995    7.82716798779221   -4.54334864155692
H          -1.62360834831471    6.97485595255862   -5.95375703081775
H          -0.29307010058077    7.55074854334586   -8.11237444879931
H          -0.24047974965096    9.29816533990633   -8.39639864353201
H          -1.35095432159760    8.29464311636379   -9.32302223587609
H          -9.82646658943342   12.28503750463341   -4.87732991674592
H         -11.11141374005626   14.07927387504700   -3.53242298749542
H         -10.76432120163144   15.74593221602861   -1.54957885406132
H          -9.12410450613799   16.41772665782038   -1.57995273173176
H          -9.52238094535127   15.13967709579019   -0.43278228277642
H          -6.66405569725750   11.80440000219046   -1.39296762774281
H          -8.32943474911343   13.72008709119326    5.30617707587646
H          -9.37649349693043   14.26514891771163    3.14950404594201
H          -3.87698011550681    9.95325351880401    4.78835850442662
H          -3.36562516324769   11.31245158713319    6.43741630755003
H          -5.17312003462271   11.86666641790775    8.17740725700080
H          -6.26609268970184   10.89104796279928   10.33231779055096
H          -5.10421493336727    9.92516300708962   11.25787158041796
H          -6.32734646200193    9.12188785144157   10.28006894714874
H           1.46493529876995    8.41742881226368    2.69641964354625
H           3.14666968971041    6.78292797254887    1.60295615319251
H           4.21613386790333    4.44235099662542    1.98945624883133
H           2.97845286505118    3.33255105148471    2.59781100966731
H           4.20889882859441    3.95383648216926    3.69314648181542
H           1.93033393591824    6.35680565005828    6.89150651924489
H           0.95000404727577    6.71432436496720   10.67453934465512
H           5.82139542325348    3.78929045703586    7.99437140195183
H           5.07962598290020    3.97139924857024   12.91896405176774
H           7.05765439236256    2.63447131679123   13.27080045095535
H           8.99633179253327    1.40335967300568   12.38162211153967
H           9.39134072341102    1.29376979491031    9.95298081534876
H           7.84955112762950    2.41574429576246    8.39300319215781
