93
 SCF done       -181.827401930310          0.000850091541
C          -2.50197012938618    1.99551255645030   -2.47738396545881
C          -1.66956338359076    2.77953398650510   -3.23615255882242
C          -1.94017980377669    3.16587604378516   -4.56075305289288
N          -2.13469398451927    3.55181190969538   -5.62513577967253
C          -0.41273835612620    3.22545017062841   -2.77732050919633
N           0.64556420648040    3.54198917431191   -2.46391680718258
C          -3.61044568372938    1.19596843926268   -2.98701994873908
C          -3.87789564166754    0.15429663832254   -2.05054591007404
C          -4.84162802019408   -0.78362027486150   -2.28079933900061
C          -5.60281066704547   -0.71296144389083   -3.47028909708133
C          -5.34932313376859    0.33443849123799   -4.40221959343064
C          -4.33591515608187    1.28642703258146   -4.14310188102468
C          -6.12177811751372    0.39700636038356   -5.57950512881176
C          -7.09653083031795   -0.53051223214526   -5.82832448489120
C          -7.34445838931894   -1.56227528054713   -4.91106697134258
C          -6.61301436465636   -1.65165340075843   -3.75779625368691
C          -2.99080412030357    0.30937982746353   -0.87931659570849
O          -2.90263923839660   -0.41219133448829    0.08807128177583
C          -2.27905388206486    1.59486095929958   -1.10761314419238
C          -1.73129151032178    2.26027989515689   -0.04682083479337
C          -1.46511933446181    3.63210590775181    0.08879384638157
C          -0.82611343633857    4.22194763382795    1.19875932221681
O          -0.34170944013585    3.43841816150167    2.17051126348589
C           0.32019479922167    4.06491633865913    3.25073088012309
C          -0.77482913768843    5.61366824180316    1.12335302397442
C          -1.36893289347271    6.12178521667404   -0.02161664701390
S          -2.00490382914325    4.85687360334580   -1.02041154488548
C          -1.48996712795009    7.47102657432895   -0.45133367394079
C          -1.12035961498440    8.59703297728936    0.31957531802095
C          -1.27960016919520    9.93812781655845   -0.19008247171383
N          -0.89921534139867   10.97188970594129    0.56265861464489
C          -0.39077257806834   10.78581095185960    1.75642877432411
C          -0.25760109565460    9.45691522946692    2.26704346564403
N          -0.61830741974475    8.42054684224011    1.54971444429102
C           0.27258914062582    9.22354909249801    3.56120191944286
N           0.70249144306258    9.03226424153337    4.60533404463025
C           0.03385906024828   11.89830409960003    2.52271507859706
N           0.40179751153275   12.76389041452559    3.17620915474484
C          -1.82707859863069   10.23927699656975   -1.46903651032047
C          -2.09499178316987    9.10433912180289   -2.27465293997700
C          -1.95681956461901    7.76414888550652   -1.75211840152134
N          -2.26198253586561    6.84278932229531   -2.66430958724401
S          -2.63791041759282    7.56997520772455   -4.04520874560929
N          -2.45820947835868    9.07994442059479   -3.55613150975395
C          -2.04076697451873   11.59360249582671   -1.83140400450944
C          -2.76820729108202   12.13258517964472   -2.91960515781007
O          -3.45421699824794   11.34444461730028   -3.75083834186291
C          -4.11733078970367   11.94950168089639   -4.84133205821787
C          -2.73188793839088   13.52800440003214   -2.97025768638486
C          -2.00843173345843   14.09541039855755   -1.93948149502725
S          -1.39593950548941   12.87235491671711   -0.84942999616837
C          -1.76718969408895   15.44283208209074   -1.59788519642627
C          -1.88714881827996   16.57942404051508   -2.34772589353194
C          -1.63690843069161   17.91434876996044   -1.82635954370058
C          -1.70514834221341   18.29230403784931   -0.51146188960573
C          -1.48699187827994   19.61212287160662   -0.06386763409487
N          -1.31611372019766   20.66735301239406    0.35402491182074
C          -2.07975320950199   17.44309702560150    0.55246267416574
N          -2.41849866132607   16.82265580328786    1.45715042508159
C          -1.42531791152750   18.80526117291743   -2.95861589122400
C          -1.69114926021494   18.07808192142322   -4.15343342618825
C          -2.06250188618935   16.69233369293616   -3.81985324567356
O          -2.41589402256038   15.84007197893457   -4.60866994773479
C          -1.59072451104189   18.65641285182542   -5.38621365260375
C          -1.20367282768323   20.01181829522449   -5.48115091518106
C          -0.92661132742557   20.74320312672227   -4.28986387624884
C          -1.04507778098155   20.11893738009575   -3.02670674660315
C          -0.53630517901796   22.09335813190695   -4.39755054457880
C          -0.42541113175367   22.69460773672108   -5.62183628831454
C          -0.69858616501852   21.97385533300545   -6.79398819044148
C          -1.07994570954071   20.66128582785228   -6.72512920056581
H          -5.02409627708468   -1.57123328106242   -1.56487746385256
H          -4.16507340782122    2.07446188715187   -4.86030428167703
H          -5.92492920831137    1.19176759510860   -6.28417020375262
H          -7.68177784296812   -0.47452930065782   -6.73405518381364
H          -8.11772588096431   -2.28565209928490   -5.12251639448309
H          -6.79971112939849   -2.44403221129154   -3.04771451157263
H          -1.57735076461829    1.67135701977072    0.85225239322030
H           0.62604145084042    3.25946549620309    3.91537137338650
H          -0.34725540881249    4.74730182553747    3.78424887267279
H           1.20243508009776    4.61255511836536    2.90887422189117
H          -0.32320162122012    6.25501345708673    1.85551486566531
H          -4.53148746334668   11.12690158557349   -5.42106466792375
H          -3.42327581713562   12.52352494934709   -5.46042361879555
H          -4.92593527938292   12.60338456677672   -4.50116244541434
H          -3.21732335180550   14.11726303380261   -3.72394423343101
H          -1.38872645928482   15.56337525256250   -0.58851336188151
H          -1.80140258250659   18.08614653885658   -6.27888326004080
H          -0.82257454345327   20.69539415480202   -2.14275682171165
H          -0.32842024691376   22.64436596511026   -3.49214012134895
H          -0.12615142143215   23.72945952387707   -5.69370042009430
H          -0.60517073546396   22.46365598943469   -7.75168548139555
H          -1.29152334243351   20.10135962861082   -7.62441298828094
