95
 SCF done       -213.805374335045          0.000595586170
C          -6.84420942256888    2.72319548168231   -2.19365228876888
C          -7.58484906238982    3.69827393679810   -1.58025090741899
C          -8.80124227286394    4.19370773798454   -2.09183357988327
N          -9.78569479411624    4.63858195134073   -2.47889954409795
C          -7.25725375916267    4.23918903311915   -0.31946882905970
N          -7.04118127857831    4.66120728719886    0.72581180601123
C          -7.27872377809715    1.91564758817009   -3.32650516891832
C          -6.53575713716437    0.69802537510405   -3.32421314748888
C          -6.76467173793532   -0.28116849237974   -4.24771586561931
C          -7.75403329150844   -0.07878419127186   -5.23625287353010
C          -8.48649334514967    1.14382361009468   -5.25393284152849
C          -8.23379242433050    2.13800538043486   -4.28118431971488
C          -9.46573321859640    1.33450022965548   -6.24987055820479
C          -9.71451972866978    0.36418235280080   -7.18191799594268
C          -8.99448558356630   -0.83972464736969   -7.16280560577325
C          -8.03550587618584   -1.05648790125544   -6.21088539896859
C          -5.55371395643512    0.72403468630391   -2.22539406162393
O          -4.79064474931187   -0.14634656783856   -1.88002882921787
C          -5.64723642552536    2.10404614977501   -1.65930471467296
C          -4.63812503133555    2.58742950634648   -0.89336979597863
C          -4.31234304479838    3.93787744350526   -0.60275548865663
C          -3.50646860350566    4.36137012827631    0.44136029819369
F          -3.00101843185220    3.51366753289250    1.33559072587196
C          -3.30661400444902    5.74441079650252    0.47624374234830
C          -3.93655506247176    6.39279195530483   -0.59369417031661
S          -4.78114922538505    5.29408064931721   -1.61425642215967
C          -3.73760514370130    7.77574873977615   -0.56047059581424
C          -2.96168297871511    8.16243155344527    0.53934142349418
S          -2.46080958532148    6.83095046894724    1.53788473875279
C          -2.77546942644872    9.55017809765615    0.59593804743050
F          -1.99354843709313   10.13209117794704    1.50471308728536
C          -3.39341278977123   10.22485153157068   -0.43981667769680
S          -4.19209636810351    9.12167456333981   -1.53592091174084
C          -3.45298693090814   11.63511097906173   -0.69614691527407
C          -3.48695950712493   12.60499690478963    0.32139618525275
C          -3.52142830186270   14.00767284212504    0.01921463909597
N          -3.49047894885094   14.89665473123977    1.03367833428303
C          -3.47904021759965   14.47957183186797    2.25555018248002
C          -3.54677575236528   13.08641390706699    2.54927450243110
N          -3.54807820789412   12.20330963236269    1.61049952660448
F          -3.63621295465992   12.66742885771244    3.80468673311825
F          -3.42230903980771   15.38426768871894    3.22428034313883
C          -3.60954177202205   14.51144375729477   -1.29775741472192
C          -3.55284656298535   13.53754815987233   -2.31883957327365
C          -3.49721925337728   12.12481456212322   -2.01382749876986
N          -3.43906476601896   11.37984894073696   -3.12028763024932
S          -3.43269813800227   12.34687003957994   -4.39845524490988
N          -3.50249921769168   13.74514422882652   -3.63492695176551
C          -3.74631735644921   15.91594822834571   -1.52775324922541
C          -4.16439926519364   16.58237012152506   -2.67289138268130
F          -4.60793778990582   15.99281673017643   -3.78257860741445
C          -4.16727250922971   17.97323148366573   -2.53926345138556
C          -3.74857153388101   18.38910147154348   -1.27018594953257
S          -3.39740144823591   17.04993985064534   -0.23749415904510
C          -3.78623499092912   19.78150258160480   -1.14795377017101
C          -4.22453686848882   20.40303895917573   -2.32642839300330
S          -4.59374887837062   19.28314841833829   -3.60319621882299
C          -4.29965388573585   21.79246411029494   -2.19972896126703
F          -4.57733643957689   22.60272465094588   -3.21723429613602
C          -3.93092066810801   22.25024048650750   -0.94431534970949
S          -3.42966795322542   20.92517121901126    0.08850032053794
C          -3.89144644692137   23.58870010495271   -0.46855069820316
C          -4.78335949578008   24.55366311978631   -0.82265862590348
C          -4.70830496748291   25.96880102358991   -0.51049129436334
C          -3.59504972205066   26.63961245997876   -0.07735082854422
C          -3.55863199814092   28.02614620572759    0.17935554962270
N          -3.47054215149011   29.14705479508708    0.41016545084719
C          -2.33582170376568   26.04286764745812    0.14273731046896
N          -1.28332096464621   25.62198566780223    0.32465533874651
C          -5.99850806795810   26.56434356936653   -0.83146024819328
C          -6.84689044279918   25.55326239701318   -1.36729233995155
C          -6.13358381657913   24.26698681701875   -1.39150563823619
O          -6.58785763660667   23.18787725942169   -1.69879322414491
C          -8.12468871169390   25.81963745743362   -1.76704463154037
C          -8.62080823622329   27.13732689031224   -1.65342703141499
C          -7.78133565979630   28.15385084142818   -1.11211221552856
C          -6.46409110148245   27.84648885626987   -0.70126401081631
C          -8.28982492622584   29.46380635376827   -0.99757816344995
C          -9.56417224593791   29.75772138566246   -1.40005634950237
C         -10.38886876195342   28.75648000229685   -1.93453195243738
C          -9.92705527092116   27.47423248983008   -2.05900633455818
H          -6.19912116597038   -1.20074534663284   -4.22425526718136
H          -8.79475409885435    3.05887517998410   -4.31998414911155
H         -10.01989305838455    2.26151762782973   -6.25802816878286
H         -10.46861523675047    0.51859246141606   -7.93898234652501
H          -9.20357741944928   -1.59445409770522   -7.90598934680738
H          -7.47827310429068   -1.98155611370354   -6.19127946195284
H          -3.94298299345379    1.84898725066743   -0.50336774289060
H          -3.11116488476501   23.81007086894735    0.24868307210007
H          -8.74690542789101   25.03464844405130   -2.17042195788350
H          -5.85598370557614   28.63547188226622   -0.28784634744121
H          -7.65085714870583   30.23175387173232   -0.58701906740655
H          -9.94403259595716   30.76422225070415   -1.30902655985784
H         -11.39187425274224   29.00609834341699   -2.24661146488310
H         -10.55714344436839   26.69886351168926   -2.46955028126387
