134
 SCF done       -244.436721709474          0.000713884655
C           4.02446476787647    2.05795920556560   -0.38095769430760
C           4.53177846843721    1.71663528589595    0.84672903579686
C           5.22243809376194    0.51448751172451    1.10868902193711
N           5.79097378980994   -0.44156071951264    1.39413738644838
C           4.45598702106749    2.48957079905490    2.02399890382076
N           4.44228607789409    3.04613604164021    3.02932751396151
C           4.12141704625850    1.23949654395269   -1.58552110466990
C           3.50259195119403    1.93838136285453   -2.66066514756312
C           3.43479019206640    1.41858596815293   -3.92066548817468
C           3.99054708864737    0.14386464965795   -4.16941318441719
C           4.60920965865354   -0.56526318190534   -3.09992208050231
C           4.66758658051186    0.00253697737980   -1.80613294826327
C           5.15620957643558   -1.83875418875215   -3.35751439393746
C           5.09517946092505   -2.38690716790850   -4.60985788215766
C           4.48622785212629   -1.68718155621580   -5.66220090496504
C           3.94619365060857   -0.44826238890185   -5.44670040209073
C           2.98592056497995    3.22520008075949   -2.17011294674550
O           2.41046166605230    4.06835203075760   -2.83121310069190
C           3.30635030785607    3.27214875271462   -0.73113363141906
C           2.96451044891721    4.27006297320520    0.13763473403955
C           2.24772145846416    5.46642094894856   -0.07241471515434
C           1.96257906904146    6.32678423655721    0.97264344894209
C           1.21410455205272    7.45401385385949    0.60464155024015
C           0.75947204510655    8.50958855045335    1.43466420738916
C           1.11787036889775    8.60717736157100    2.83174752686805
C           0.34656640349413    9.03750728145107    3.87730470305012
C           1.02745462401337    9.04529423898676    5.10896130998207
C           2.32439933891057    8.64033169792733    5.01720412707774
S           2.72797098708865    8.22319713733664    3.38613164444256
C           3.33863370828688    8.52302480652252    6.09604336533240
C          -0.04871628205649    9.45772376419100    0.82205469479330
C          -0.36780302754885    9.43692995643501   -0.56286526776584
C           0.14520849319627    8.42486050745968   -1.40049675565537
C           0.90081294340463    7.43156503347020   -0.78102535084065
S           1.58283280837219    6.04629867518721   -1.58278908999033
C          -0.06703544936412    8.42135765995738   -2.83184570759023
C          -0.26262038062898    7.35241990447662   -3.66251146730729
C          -0.37139022604493    7.71134934587471   -5.01953857313594
C          -0.24264156763343    9.04805516464695   -5.24191706712788
S           0.00196000249764    9.90173813779397   -3.75493841802598
C          -0.29321828905396    9.78417622273492   -6.53179444341315
C          -1.23353429633444   10.49485385802268   -0.91661589917802
C          -1.54464183933725   11.31934856544379    0.12964497550356
S          -0.77703543893854   10.83105667064787    1.61797367113800
C          -2.43218572780008   12.42506663714821    0.06944858171913
N          -3.10190920190417   12.73494900996096   -1.00190015206653
C          -3.88699460411444   13.78728195906899   -0.78013640763565
C          -3.84310665123205   14.34731796222580    0.50846780042622
S          -2.73201236309594   13.46779463382783    1.48138328311219
N          -4.64510950334815   15.38807844227990    0.73361601132660
C          -5.33636752029885   15.67447558314191   -0.33017333919381
S          -5.01898879943076   14.64283117077287   -1.74660800073556
C          -6.30513691440168   16.71049197492867   -0.39049669541682
C          -6.61459684489458   17.59805875989079    0.60359063886653
C          -7.65495014131845   18.48904617300693    0.25505488990188
C          -8.24410467279480   19.48798338077164    1.05993076607021
C          -7.69692566931700   19.82024787581301    2.35720740690107
C          -6.37991225271304   19.92940519659855    2.71062737909922
C          -6.19311605975431   20.28705237503830    4.05950042322507
C          -7.35871530655207   20.44484671769736    4.74492663008317
S          -8.72705045264871   20.16460071650440    3.71968707465758
C          -7.55207858975341   20.81477642374850    6.17069370892506
C          -9.35568770824793   20.13249708190711    0.52796816614297
C          -9.87460858569121   19.85628410851037   -0.76681356878642
C          -9.26169716777217   18.87983488088679   -1.58659096669311
C          -8.15761586541269   18.23154235225447   -1.04656843173124
S          -7.27930561579568   16.93854965563269   -1.82065660057892
C          -9.76246208291302   18.53331802313219   -2.89785136179042
C          -9.03868423657488   18.21786346518032   -4.01680261820382
C          -9.84172953251057   17.87367232529961   -5.11900783081539
C         -11.17673732479926   17.90282994490879   -4.84723309259890
S         -11.46962892960060   18.37914871290904   -3.21111366032426
C         -12.31277170090539   17.59330887513677   -5.75355869541149
C         -10.96883786512495   20.68111859111063   -1.08876502226533
C         -11.32102846903813   21.55290971580508   -0.08723254980394
S         -10.25789549369304   21.39236042118313    1.30923958579096
C         -12.34191662350360   22.52463572699897    0.01791862515430
C         -13.39397095647199   22.82801738984176   -0.79930721489747
C         -14.37452265923743   23.85820457095222   -0.48093188615222
C         -14.24701325444113   24.86260402508346    0.44254038956188
C         -15.23606661577362   25.84044575493718    0.68122979115416
N         -15.99714498157250   26.66391991384008    0.92770591803247
C         -13.11879932866219   25.11258734266934    1.25311372326755
N         -12.24427685717880   25.40911760171887    1.93651827636721
C         -15.51201887176283   23.68639405402432   -1.37629862824173
C         -15.19359422996198   22.66425688016440   -2.31258011097876
C         -13.84486079253487   22.13994994885561   -2.03537571677810
O         -13.25812091904659   21.31911827543660   -2.71012876381690
C         -16.06606678843702   22.27983635288901   -3.28922454109334
C         -17.32901708673333   22.90741453825299   -3.36952270875206
C         -17.66019844037283   23.92607207196583   -2.43020871226895
C         -16.73193606272497   24.30707411598437   -1.43411805956636
C         -18.92574522841666   24.54146763456616   -2.51514911908626
C         -19.82143972767985   24.17081160658487   -3.48085058378546
C         -19.49366358123575   23.16834378691211   -4.40587191642012
C         -18.27387848351426   22.55044514622199   -4.35144541680492
H           2.96009406884559    1.97261384083833   -4.71691087329519
H           5.14301403420198   -0.56213472838421   -1.02025914814194
H           5.62438894696221   -2.37378730507269   -2.54431683609955
H           5.51603259224336   -3.36354324716337   -4.79656415857992
H           4.44686119818130   -2.13475452688875   -6.64407825672413
H           3.47573788377331    0.09578449356854   -6.25273262282063
H           3.26722227464676    4.14426854274422    1.17032362931357
H           2.27856717644104    6.11504078757244    1.97818213835647
H          -0.69059601662617    9.30062058653340    3.77703461897220
H           0.56847260659426    9.34288965029315    6.03491593941025
H           2.90452088257940    8.81886034543670    7.04798851062372
H           4.19821930461207    9.15973323342852    5.88760800750626
H           3.69773458973272    7.49717772077735    6.17548179947045
H          -0.35943003459596    6.34076153976050   -3.31407374964899
H          -0.53613661390892    6.99712834883988   -5.80651623457652
H          -0.46317608840601    9.08864273306734   -7.35006422555345
H           0.64235796732402   10.31432528276509   -6.70914945530851
H          -1.09571930024838   10.52142971777132   -6.52290601292914
H          -1.64581446182247   10.65333193808999   -1.89484662700085
H          -6.12622302160076   17.57347180303722    1.55922113789822
H          -5.57120414395076   19.80123351335213    2.01362815476027
H          -5.22409808441778   20.42407547667270    4.50574441483142
H          -6.58956396820397   20.87801720906430    6.67261423451825
H          -8.16934219280959   20.07565291130256    6.68015683909457
H          -8.05416417521445   21.77900022659957    6.25071562531625
H          -7.96600151878691   18.27243707986421   -4.06172261900223
H          -9.44221852329749   17.61196911417489   -6.08269358179881
H         -11.94482053161033   17.38116859781939   -6.75455655565646
H         -13.00310331888998   18.43476523195531   -5.79988021626973
H         -12.86774338364967   16.72717102257260   -5.39267092897837
H         -11.48793727163961   20.65550639570697   -2.02815612490568
H         -12.27986918660347   23.09195441055838    0.93988005593988
H         -15.79688421818149   21.50262925662190   -3.98911736139028
H         -17.01605313731459   25.07782341167671   -0.73566244561383
H         -19.17324492297655   25.31374218926771   -1.80165754882365
H         -20.78820340320686   24.64829208696110   -3.53739304181927
H         -20.21255180844522   22.88809811136383   -5.16131159674059
H         -18.01569512779164   21.77749055399089   -5.06067973605583
