137
 SCF done       -246.410543296224          0.000923347653
C           4.49261666516186    6.24506055358996   -5.24945474340209
C           4.72969586129969    7.58556543410336   -5.09576188076858
C           5.08589248273330    8.44547470254334   -6.15195445295444
N           5.34535815178446    9.18716348065440   -6.98909549493290
C           4.72241241176689    8.21843149210963   -3.83377941633116
N           4.79982324448161    8.73707606370946   -2.81288584631913
C           4.82345327004262    5.44792945383379   -6.42443628580843
C           4.93330268761812    4.08303586171769   -6.02488863650418
C           5.28054163407127    3.10401450981127   -6.91016516417183
C           5.52771491514377    3.44905487356212   -8.25820464898585
C           5.40893165436458    4.80941907156459   -8.66526979815127
C           5.05497368788334    5.80461769511151   -7.72507659046125
C           5.65559720007808    5.13729897077667  -10.01390208913302
C           6.00370599796105    4.17102911798954  -10.91791019911482
C           6.11965391281858    2.83193276995289  -10.51628393223588
C           5.88744855060425    2.47924817648797   -9.21469366991763
C           4.60620990332727    3.96323687764740   -4.59119891666912
O           4.64281403143539    2.97329749734932   -3.89656543204235
C           4.14329331311854    5.32077147451024   -4.18913376543470
C           3.38914866763424    5.47266449966817   -3.06951519380580
C           2.50445493219701    6.53004148099506   -2.73326605520570
C           1.97553191819801    6.77533506171132   -1.49140243242728
C           1.08913281084937    7.87287136077642   -1.45021776704734
C           0.39033689493828    8.39217142096543   -0.33699612121133
C           0.43451231686562    7.72766839581406    0.94669961299407
C           0.39846651837648    6.38316004343579    1.19891933669668
C           0.44971823210979    6.07086040759640    2.57071991390271
C           0.53107145304817    7.16784843690586    3.37292362902116
S           0.53171328251367    8.62586458307129    2.43633415957090
C           0.61462437469599    7.22511319891296    4.85526382668594
C          -0.34689182231145    9.54938453295969   -0.56063179779034
C          -0.44923885392302   10.17875669610527   -1.82647633843608
C           0.20518626863407    9.63129081522070   -2.94976125108934
C           0.96158757993861    8.49089116770977   -2.71971201061890
S           1.86364739416749    7.63489707582054   -3.93466367542404
C           0.11827256413016   10.24984076221686   -4.25625865826325
C          -0.96701320326719   10.80381226758483   -4.87528807010772
C          -0.66961122227454   11.34099487012307   -6.14356491545969
C           0.63885057887289   11.21015069934027   -6.49568247578008
S           1.53888356499100   10.39541713249110   -5.25987991742015
C           1.32248391612052   11.67873290067664   -7.72889355097450
C          -1.23504348974846   11.35211701907925   -1.77288685688546
C          -1.75782638923815   11.61435627515158   -0.53958153568806
S          -1.27271443318669   10.40841642833971    0.63833756505320
C          -2.59944470849975   12.71043932694425   -0.14650507867343
C          -2.86136326584223   12.98597781894101    1.18405279824984
C          -3.65802779652186   14.05354536197108    1.59123089608488
C          -4.27213111236785   14.91635465003283    0.69994237298476
C          -4.05134789740946   14.66594945682763   -0.68682640359030
C          -3.20932028887472   13.56732995798243   -1.10939562611270
N          -3.09212994301704   13.45142709924489   -2.42526630536610
Se         -4.01250609758957   14.71306163430845   -3.21081491438837
N          -4.55179653485669   15.37834194710659   -1.68690008447023
C          -5.07212085703923   16.02140189222070    1.14900946959454
C          -5.86453329957957   16.85018797349742    0.40874868101218
C          -6.49275812262870   17.87133398595522    1.15831786497335
C          -7.32757175918450   18.89984312339457    0.67906926063334
C          -7.60465555678547   19.04428163440429   -0.73516699020092
C          -6.73850595786930   18.92368782151574   -1.78651770990134
C          -7.35011372693687   19.13510435900472   -3.03749580643666
C          -8.68106444740151   19.40777004819788   -2.95040754790842
S          -9.20818899206221   19.42355596106417   -1.30048012829436
C          -9.64579735398914   19.67553809855337   -4.04897495979608
C          -7.84790722828525   19.77428319545917    1.62844455806979
C          -7.53513708034919   19.68239867992801    3.01166654316134
C          -6.66776066368975   18.66886283344771    3.49226490490314
C          -6.18675826281776   17.78004038315362    2.54125101454487
S          -5.09730452577579   16.45447000252513    2.85063397537737
C          -6.27342541876177   18.57358740994041    4.88008103228238
C          -6.06445859137299   17.44440193517500    5.62414190096239
C          -5.63072590616724   17.71072006688991    6.93655544575733
C          -5.48743623281351   19.03806225567924    7.20370783013181
S          -5.90657277481363   19.99559701087679    5.82327441785466
C          -5.04967149331151   19.69005766660276    8.46462846068290
C          -8.19310320918036   20.67941536271672    3.74416114512839
C          -8.95121183163129   21.54498409492660    2.97449029058679
S          -8.89034291341838   21.12314077375112    1.27798714992988
C          -9.65634449635249   22.61510361708094    3.56102834796894
C         -10.42591734239052   23.59328619342613    2.99527215813226
C         -11.09721525997222   24.66005567657660    3.71716125253347
C         -11.07695023123625   24.89204251181644    5.06916474257836
C         -11.75699018727914   25.95592274208358    5.69836200098845
N         -12.28142476783734   26.79674204455518    6.27860817870317
C         -10.38894645029451   24.13007933087509    6.03609016582853
N          -9.86142940889134   23.57391971550680    6.89225673265828
C         -11.81083533554822   25.47453629177667    2.73836805754997
C         -11.57852886656246   24.93428410618030    1.44175409631245
C         -10.71231883521849   23.74993841072503    1.55733508215130
O         -10.32061618491454   23.05301470770994    0.64112053571280
C         -12.11597607947250   25.49051290681708    0.31760119795848
C         -12.93155441360959   26.63773770001966    0.44004910389100
C         -13.17328151432267   27.18369031624099    1.73330359940773
C         -12.60025192874263   26.58522635510284    2.87918751327861
C         -13.99073390338704   28.32668010080335    1.84532234205397
C         -14.54290234028508   28.90442966592837    0.73458233547914
C         -14.30293594455396   28.36666427710031   -0.53857004990148
C         -13.51439430684555   27.25737382203328   -0.68257134467897
H           5.36664261332405    2.07708291844289   -6.58716547866275
H           4.96403905650329    6.82721091236512   -8.05746957874337
H           5.56806254274148    6.17000934368553  -10.31835491929681
H           6.19224702061690    4.43329987225289  -11.94827550243935
H           6.39372885565573    2.08175595603518  -11.24298049968568
H           5.97548549024015    1.44986779301853   -8.89897446525829
H           3.39717849901799    4.63132905651241   -2.38310621186004
H           2.27020536049122    6.21532399549516   -0.62250355530121
H           0.28778456604750    5.64242265988439    0.42719536516973
H           0.42484097404771    5.06424063083178    2.94917933612673
H           0.53252629443697    6.22395698515690    5.27149707080012
H          -0.18450794443481    7.84394308145917    5.26160844848313
H           1.56361363048613    7.65902459289520    5.17014626792388
H          -1.95653653668968   10.79242158823160   -4.45464470262398
H          -1.40528618071887   11.80894064497271   -6.77375216005957
H           0.58895849698009   11.95068780405495   -8.48439406275604
H           1.97567123016656   10.90314636525432   -8.12486141249165
H           1.94011404393891   12.55145880107964   -7.51357977073179
H          -1.39403103698959   12.00135587749836   -2.61162950059819
H          -2.41834247335373   12.35271525842542    1.93885967975501
H          -3.80385385890368   14.21604284551450    2.64916709444950
H          -6.00358872333104   16.71556767655773   -0.64629973273142
H          -5.68714693745978   18.73293725744072   -1.66678080834842
H          -6.81729614880712   19.08858081139278   -3.97096435823520
H          -9.13280135521229   19.66285057646857   -5.00772834766521
H         -10.11821132165348   20.64784744584708   -3.91347502065146
H         -10.43368071350276   18.92251753240776   -4.06169465413695
H          -6.25444062759550   16.45252879304829    5.25626275487204
H          -5.42999194387047   16.94045803076936    7.65989771905936
H          -4.83798935166913   18.93621523086897    9.21905280655413
H          -5.82433723130904   20.35799212302990    8.84056934666151
H          -4.15138129486789   20.28460976601379    8.29888771971772
H          -8.13659763804265   20.78022179197469    4.81307254895702
H          -9.54279715335501   22.64590408174684    4.63814565356969
H         -11.92120200437881   25.05993013049369   -0.65346796849490
H         -12.80364224406111   27.02505687491140    3.84233501237247
H         -14.17213790536680   28.73735349341848    2.82778808543308
H         -15.16785844460730   29.77963332071402    0.83100434249063
H         -14.74607314017776   28.83555082848341   -1.40448056577812
H         -13.32604824555842   26.83850732679152   -1.66039893941353
