107
 SCF done       -210.007764127833          0.000562182693
C           3.20468677373341    2.94853155173700    2.02548218046691
C           4.43999193037491    3.44207266981123    1.69225014768080
C           5.53173711192285    3.50339620262629    2.58364188268513
N           6.45910328791396    3.57362505062521    3.25678869160151
C           4.79729479957497    3.97639744963893    0.43615383972836
N           5.17097541357332    4.44358083379049   -0.54391548821286
C           2.80959509364176    2.47185157528448    3.34553087038243
C           1.42604637962649    2.13783494938500    3.31177651570699
C           0.76938429195414    1.66820542341799    4.41238971401429
C           1.47898443570069    1.51131044847593    5.62388625659917
C           2.86575769879078    1.83607438107210    5.66476478021778
C           3.51957590505734    2.31728034099360    4.50729715575726
C           3.56656973499753    1.66820930703098    6.87650976683161
C           2.92973308272668    1.20404357188853    7.99511928394509
C           1.56390607534611    0.88620355062171    7.95403040782960
C           0.85389212505393    1.03717387888181    6.79384988858627
C           0.89329786295195    2.36451576687331    1.95713765380723
O          -0.21886327452443    2.08989125004970    1.56739592255637
C           2.04197169829234    2.88351173429054    1.15931553372176
C           2.02996567906082    3.08827596708134   -0.18855774742707
C           0.88955724875193    3.19828938563274   -1.01982869272151
C          -0.42115902835485    3.65575546661820   -0.74666836287501
C          -1.13111482050390    3.60581994784068   -1.96802028520882
C          -0.17323568910297    3.16013067379265   -2.93179108985595
N           1.00680236198958    2.93279646449499   -2.35162032026912
O          -0.37208235029062    3.03176106972478   -4.22171605503805
C           0.73050515040662    2.55613863617199   -4.97741062369710
C          -2.42789897074735    4.11289403598744   -1.69133733226879
N          -2.49473080068862    4.51177524338046   -0.39188842689249
C          -1.31921939032074    4.27287876698426    0.18427096359001
O          -1.03793757326267    4.59903485590704    1.41775108226315
C          -2.08265069166544    5.21613473832705    2.15590412522500
C          -3.55719824699875    4.24884910623144   -2.53411232772426
C          -4.58813244687773    5.15834513531817   -2.18357840867009
C          -5.83524122081278    5.20259026241283   -2.90668083792693
N          -6.77692137523789    6.07313793859789   -2.53976558544865
C          -6.61662883277907    6.78546376118271   -1.45229208441682
C          -5.37535753225981    6.74769173198731   -0.73932808775847
N          -4.39078779012879    5.99503882040293   -1.16390410642219
C          -5.15950904387255    7.59146502079874    0.37766273090116
N          -5.01195054568651    8.25512559399662    1.29965290955623
C          -7.65409264203832    7.66220275684980   -1.05038275754174
N          -8.49456191991336    8.35365575857378   -0.69285806303732
C          -6.08682503419692    4.34512164867247   -4.00803964876196
C          -5.03467674930387    3.48865793674590   -4.39828205174452
C          -3.78562649468426    3.43836106901496   -3.66727072733208
N          -2.99052838477318    2.47454418686406   -4.12065868291124
S          -3.71111629330662    1.73286875342570   -5.34673695600479
N          -5.08534799828283    2.56011914730276   -5.34814743325145
C          -7.38306651779360    4.29251652698144   -4.57524941264080
C          -7.80386113927967    3.85642013350195   -5.85852705233818
C          -9.21344057592480    3.95785744663957   -5.86375455672102
C          -9.55367862919904    4.53263857587111   -4.59588891631428
N          -8.46222960518227    4.70284477379616   -3.85418126756666
O         -10.75340599557864    4.88034524799741   -4.21217052545425
C         -10.85509196831651    5.45016610312064   -2.91517559381389
C          -9.64399538348049    3.57197739942182   -7.15435119000950
N          -8.55790643858172    3.30284286991932   -7.93224121031155
C          -7.46035999235336    3.45688876798119   -7.18804631470922
O          -6.24717294624396    3.30477436379617   -7.66213476766146
C          -6.15476049824637    2.88876781884991   -9.01546626650584
C         -10.94217858212311    3.53134421675014   -7.71867801108999
C         -12.10824664233429    3.31097110451216   -7.04791863820165
C         -13.44791373256858    3.43911761129505   -7.59054440807700
C         -13.78952404102912    4.05545367220575   -8.76681996509044
C         -15.11424809487974    4.18270252537910   -9.23456874183720
N         -16.16797695348065    4.31302165709139   -9.67123710836993
C         -12.88414148147576    4.67124167546306   -9.65680756477136
N         -12.22266067340797    5.21133541669489  -10.42442287213627
C         -14.38207813191666    2.87891990252329   -6.62167065720641
C         -13.64682915163211    2.44666231115165   -5.48172312158684
C         -12.21010096358526    2.69372279752697   -5.69287968145711
O         -11.31007376624166    2.37023285110721   -4.95179519791335
C         -14.25772328360001    1.88077405247881   -4.40015981682263
C         -15.66127290104502    1.72086162342964   -4.40677941623243
C         -16.40442550606167    2.14450023229767   -5.54641218891652
C         -15.74315877414476    2.72441782208668   -6.65344315651988
C         -17.80378911056835    1.97330014270677   -5.54556488818638
C         -18.43999612256093    1.41270936613822   -4.47159766603605
C         -17.70723100745445    0.99693217805963   -3.34980381509953
C         -16.34750418975123    1.14841711466995   -3.31784830487749
H          -0.28056659285900    1.42099888885618    4.35914425748539
H           4.57120545564118    2.54737988919319    4.57009916760500
H           4.61768439233377    1.91525969260975    6.90362788440094
H           3.47514128612863    1.07919335082742    8.91848130200317
H           1.07745080909816    0.52065134864630    8.84597229415406
H          -0.19778721014661    0.79329741323508    6.75593274076637
H           2.96814926728636    3.15509748906268   -0.72613713648623
H           1.61520189077269    3.16578966770248   -4.78487911722787
H           0.43427540362353    2.62142071023552   -6.02208989446179
H           0.95591307622451    1.52246790918616   -4.70846591665158
H          -1.65018155281945    5.50776698972712    3.11040057533334
H          -2.90045835009954    4.50948729652883    2.30659202956057
H          -2.46758311781179    6.08657797550558    1.62130395518516
H         -10.59534286501646    4.70675247138307   -2.15971648418052
H         -11.89011856105618    5.76453003637564   -2.80092476144937
H         -10.17749238179798    6.30022885134458   -2.81577533461466
H          -5.09839059386929    2.92287474969594   -9.27295714151721
H          -6.73355600850065    3.55424687617816   -9.65858853890876
H          -6.54243306738990    1.87440415851511   -9.12676927966952
H         -10.95987940376351    3.66463407730426   -8.79368001321461
H         -13.67597778749709    1.56005668856619   -3.54867984790299
H         -16.33333062040314    3.02665171193610   -7.50390829728530
H         -18.36398319400321    2.29570266890363   -6.41092029813583
H         -19.51216442042460    1.28629023810465   -4.48049438801893
H         -18.22535992649154    0.55567991262081   -2.51155012926818
H         -15.77773212624250    0.82974681836539   -2.45718545529930
