97
 SCF done       -193.168522360082          0.000826054657
C           0.55430168758508    1.27204264999660    1.12434630534405
C          -0.66451074573564    1.54249671200820    1.68941889119395
C          -1.06666763356046    1.05608555306958    2.95148385418115
N          -1.44490383064358    0.67515295512209    3.96535555452881
C          -1.68811591217886    2.25694672538208    1.03782364562901
N          -2.55123536579521    2.82096543362663    0.53239778494905
C           1.54500302134584    0.35449645150021    1.67635095741506
C           2.39943185642125   -0.08083722695399    0.62101822422976
C           3.40611353174661   -0.97718560971026    0.83881587433165
C           3.61753640552020   -1.47112326428812    2.14592592404120
C           2.78338481403016   -1.01797576937477    3.20919358398903
C           1.73997734173085   -0.09894467160777    2.95268141857710
C           3.01753270004919   -1.50480778169601    4.51111294525227
C           4.02339980959063   -2.40045919288149    4.75301929275886
C           4.84100936112858   -2.84979525434267    3.70527843646065
C           4.64223999015386   -2.39547724944075    2.42969822254780
C           2.01983590878586    0.60466606543994   -0.62524091666408
O           2.47323756000584    0.45426764209704   -1.73586738580418
C           0.98066388929311    1.60112700813228   -0.22118341129243
C           0.70569583269771    2.63266732601247   -1.06352968526594
C           0.08907232321100    3.87060140610825   -0.76760555402581
C          -0.08706756751163    4.47638028520948    0.46752043342874
C          -0.70851128914787    5.71358406127884    0.36142733507202
C          -1.00015495520138    6.07067567244924   -0.96885975632525
S          -0.50041483336572    4.88200496734220   -2.07968749150998
C          -1.63041505808348    7.34273741203365   -0.96216780398240
C          -1.74421847869356    7.77896820730101    0.37431068580289
C          -1.18529327407115    6.76180033303941    1.24858007038063
C          -1.14274957454407    6.75216477587400    2.61135078210214
C          -1.65177310379264    7.80798425817087    3.39741174681114
N          -2.05443384470355    8.66408886141977    4.04417558839553
C          -0.58326996263713    5.66578020698007    3.31771649767450
N          -0.11390720418892    4.78163719664824    3.87716521855466
C          -2.33773251718609    9.03476906942313    0.48121872735491
C          -2.66419117620635    9.54320681067417   -0.76097686413239
S          -2.25273656156472    8.47089884957607   -2.07807341978068
C          -3.24685668814647   10.81565897395037   -1.04620054121848
N          -3.47390004048282   11.13428421474452   -2.33398144305187
C          -3.93065783315499   12.33645471463968   -2.56229132212118
C          -4.10855994866280   13.24965048148715   -1.50012595238590
N          -3.94755066437698   12.81228446905207   -0.24137194402580
N          -3.54833749248717   11.61497771181346   -0.01607818537054
C          -4.47149837046419   14.62244719473389   -1.67503024065433
C          -4.66610644203989   15.54539659178755   -0.66593161298704
C          -4.97983532065093   16.80606846457403   -1.17202933860177
C          -5.02310107506089   16.83169143016277   -2.57806463527377
S          -4.68155241056622   15.31163365450247   -3.27353138401563
C          -5.32794663980935   18.14859653049895   -3.00072768968750
C          -5.47688857879810   18.96242825539965   -1.85617758177996
C          -5.26010990240444   18.14451193680915   -0.67208791322739
C          -5.29218503792697   18.54163188362689    0.63061859636029
C          -5.54134088119571   19.87363792452840    1.03048984773571
N          -5.73011170724692   20.94279455187050    1.39680397197726
C          -5.06266320860070   17.64192252672122    1.69545791668153
N          -4.87532079234695   16.92389452536010    2.56883201162532
C          -5.77140883170599   20.28483579891958   -2.16161243857249
C          -5.85010230942960   20.50090089446620   -3.53147438163192
S          -5.54754595845552   19.01404911854041   -4.44496185749219
C          -6.07732803914571   21.65162851775637   -4.31592245401008
C          -6.37659703408596   22.94069082963410   -3.97509761713753
C          -6.51162755097672   24.02013839008099   -4.94480893349850
C          -6.21504640799350   23.97559529461042   -6.28306690713886
C          -6.35900072229929   25.07241741129409   -7.16008310526186
N          -6.45271734319061   25.91543144049988   -7.93361404667358
C          -5.70439055114822   22.86996971070406   -6.99517863807692
N          -5.27591950687649   22.03104408174681   -7.65327293984390
C          -6.96983839929832   25.20713181017621   -4.23329396986239
C          -7.06704312969560   24.89467940904832   -2.84872434883128
C          -6.69314910645091   23.48945435350887   -2.63008449194884
O          -6.68027760290618   22.91693394198624   -1.56097024987560
C          -7.45860466979061   25.81690465916181   -1.92137665670096
C          -7.78071375123936   27.12452451834851   -2.34689887919929
C          -7.69530591835709   27.44543839138041   -3.73275905075033
C          -7.28581753734624   26.46786369604829   -4.66823119233133
C          -8.02273850327493   28.75239587765388   -4.14801608378500
C          -8.41313288326925   29.69820407868575   -3.23948500708761
C          -8.49507098288453   29.38135110862435   -1.87518019008014
C          -8.18580773432024   28.12177311578892   -1.43822209200036
H           4.03718318212055   -1.30286769629845    0.02530887543753
H           1.12957553424151    0.23831656548225    3.77584946911162
H           2.38310163833837   -1.15831814427799    5.31348245562564
H           4.19442754420116   -2.76818942005671    5.75360679363954
H           5.62986968474330   -3.55685974082104    3.91397043386111
H           5.26948272648998   -2.73725490827558    1.61940330760032
H           1.07677316612026    2.50956458106064   -2.07642347738535
H           0.26707024618947    4.04790711437076    1.38690862889405
H          -2.53075309165357    9.57566484668908    1.38952183374882
H          -4.16843495254086   12.59160061543535   -3.58763787516175
H          -4.57167524201134   15.27769954400019    0.37046445851457
H          -5.93153972758090   21.07158692532987   -1.44562996481522
H          -5.99036714523814   21.45120440169739   -5.37748715099542
H          -7.51898719948779   25.54982464697294   -0.87680173737888
H          -7.23556757023839   26.74491884070976   -5.70892193334607
H          -7.95690785578413   28.99209455482766   -5.19917049462690
H          -8.66070287918805   30.69665629814997   -3.56736071159318
H          -8.80454260946765   30.14029854304427   -1.17233510244660
H          -8.24696108555641   27.87145907049556   -0.38930054829210
