119
 SCF done       -225.505319101829          0.000481168165
C          -3.30054411799554    1.44022187377981    1.61114858212963
C          -2.55245334661344    2.20229166886572    2.47148798248176
C          -1.31287351744722    1.80511535857769    3.00948285775818
N          -0.27693407057797    1.56588790205686    3.44378370007305
C          -2.96680288902472    3.45490061284693    2.96817988680316
N          -3.27495071781001    4.45690694285998    3.43536448275746
C          -3.05939580196080    0.03296710801969    1.30940441255774
C          -4.26520487137319   -0.53269137929267    0.80097004968555
C          -4.35162988342091   -1.85305284216936    0.46691362979831
C          -3.21312645405858   -2.67763337011226    0.61456344348183
C          -2.00026004548278   -2.11392262062476    1.10597658259120
C          -1.94301423750283   -0.74494041800006    1.45560473136665
C          -0.86962310332556   -2.94519362753498    1.23792551405765
C          -0.93228048121049   -4.27069572927772    0.90400486193564
C          -2.12734446871771   -4.82551038443511    0.42266113132718
C          -3.24348262511943   -4.04613428802729    0.28184011011624
C          -5.29233066774467    0.52013690427536    0.70105846863732
O          -6.44746239870540    0.40802804809007    0.36058217923978
C          -4.58634783564335    1.78765361205462    1.04723472996811
C          -5.15257944765745    2.97309443501313    0.68444363636820
C          -4.54689547362336    4.23981203314066    0.53054239905268
C          -3.20574551523960    4.56764626497508    0.41028984559367
C          -2.96716262641456    5.92737621615814    0.22603494306797
C          -1.62762581284275    6.49643424317167    0.04731607497304
C          -0.64050618500538    6.16250682675538    0.96461689819497
C           0.61732925552926    6.75201774432054    0.86660632321832
C           0.86271978945041    7.67122129397904   -0.14916471586439
C          -0.12027655445502    7.98645331087731   -1.08209686611813
C          -1.36602695176680    7.37552689388144   -1.00016948399679
O           0.22563619010804    8.91903493617336   -2.01140976745637
C          -0.74617693760705    9.35605198882998   -2.93006452936436
O           1.64642480499795    6.51103949315700    1.71165612963246
C           1.41987582337150    5.68223597828956    2.83044076044373
C          -4.14893439986030    6.66958224169416    0.20679505952488
S          -5.53983658807135    5.66181951805303    0.35447362935967
C          -4.26167998922929    8.08106994282741    0.00670349290274
C          -3.28883507526099    8.98742607789127    0.47999055731403
C          -3.16611036580825   10.31806600195731   -0.04161305495780
N          -2.12352577929713   11.07845059672503    0.36209385240747
C          -1.29935682516452   10.61543690937704    1.24139338090900
C          -1.49199088002724    9.33822611552960    1.83595078823952
N          -2.44978129707870    8.56518615221221    1.45135873116716
F          -0.71138857619276    8.92115374029670    2.82675008131561
F          -0.28108775372280   11.39125560074750    1.59803079698259
C          -4.08713411266763   10.83116360920956   -0.98766619524996
C          -5.19933598221564   10.00130633167148   -1.25426888208692
C          -5.28631835418207    8.64395878111754   -0.77423328801006
N          -6.38264514463501    8.02881960814541   -1.22263138581508
S          -7.22788850024575    9.05169987003577   -2.12029092024302
N          -6.24373936094873   10.31431974429597   -2.02169042628716
C          -3.90250015528118   12.04263425583417   -1.71450855657968
C          -2.81037090030255   12.89554797981834   -1.70958701026091
C          -2.89053926276359   13.92998534886758   -2.63976173122995
C          -1.88110235815341   14.97742631397343   -2.77779052507224
C          -0.54016640892540   14.63605233852696   -2.76672640816375
C           0.43301035685163   15.61312307125233   -2.99373914233699
C           0.04772373418111   16.92345116785318   -3.22187754578777
C          -1.30619435381971   17.27150204763393   -3.19958141151195
C          -2.26999953986528   16.30493180993935   -2.96981942787060
O          -1.56569775364579   18.58843677399326   -3.42780347896747
C          -2.90389156907336   19.02328756392462   -3.41875888155039
O           1.71781080618010   15.17777389163894   -2.97730524787719
C           2.74880929908709   16.11216150870940   -3.18867241975256
C          -4.06937114004702   13.87249191423216   -3.39279023806292
S          -5.09042542144471   12.56095838947151   -2.87088798729305
C          -4.50188433698927   14.70275694762556   -4.45156095039990
C          -3.69182331098389   15.28562968217840   -5.38768886285548
C          -4.06452014586293   16.31928106736165   -6.32658883629954
C          -5.17168020128314   17.12622278018845   -6.23343833133940
C          -5.47900909316963   18.15512197945165   -7.14566536446644
N          -5.78518568159251   19.00238608248505   -7.85769022273905
C          -6.10350419693335   17.06988210440872   -5.17734524857730
N          -6.86631492851948   17.10547238872819   -4.31917458880279
C          -2.98576907247856   16.45674025285847   -7.29664478747615
C          -1.93423709743021   15.57024176620099   -6.92775538160145
C          -2.32930201997032   14.80486889668657   -5.73308551719217
O          -1.71353088113824   13.89686747120517   -5.21672541184937
C          -0.77479016232392   15.49183647834896   -7.64226169607717
C          -0.61173936481914   16.31062978474089   -8.78276787206268
C          -1.66373064308975   17.19236287950157   -9.16440017961017
C          -2.85335576065390   17.25375708582552   -8.40215358946557
C          -1.49456002842656   17.99482792323424  -10.31084337558017
C          -0.34246539471849   17.93136103301690  -11.04662455965769
C           0.69313293844126   17.06382159826662  -10.66940665889587
C           0.56188923781374   16.27219359345990   -9.56058463538907
H          -5.27701467530863   -2.26512603146772    0.09282738688335
H          -1.01063533057205   -0.34132624742811    1.81941979166272
H           0.04752915622605   -2.51422145955048    1.61184036490065
H          -0.06081954496812   -4.89932315053589    1.00940538911477
H          -2.15913350047069   -5.87319187373699    0.16356200798719
H          -4.16642319375917   -4.46774427839611   -0.08857618797956
H          -6.19909559627936    2.90899966211389    0.40294540516017
H          -2.41775362194151    3.83615521914384    0.38541881440864
H          -0.88810232512003    5.49419601409228    1.77224985729761
H           1.82449664328045    8.15222301948425   -0.21057986220143
H          -2.14386027795430    7.58744280652528   -1.71706097468292
H          -0.26196518019685   10.12590784750621   -3.52832458613082
H          -1.61538360542638    9.79096300330052   -2.42387592111722
H          -1.07671464475759    8.54358565584793   -3.58520570804142
H           2.35585185920289    5.67973799261215    3.38594817504811
H           1.17551342618684    4.65763823325412    2.53259040264106
H           0.62192015121835    6.07900541443907    3.46442418006534
H          -1.98326774390848   12.76366436008253   -1.03843851736493
H          -0.22696602337351   13.61484591613297   -2.63298497703204
H           0.75613236222008   17.71135924565637   -3.41556485477078
H          -3.31722139928650   16.55752376857874   -2.92567647583149
H          -3.49417531305490   18.52989649389272   -4.19789859683913
H          -2.86805248948893   20.09237520899920   -3.62094261050525
H          -3.37770574217582   18.85408589967820   -2.44721169742605
H           3.67677562230181   15.54691646863937   -3.11882655962448
H           2.74348156606414   16.89567352047487   -2.42450963931289
H           2.67722917045747   16.57159113443300   -4.17980812662477
H          -5.57468061417411   14.83501032220297   -4.53557106029911
H           0.00896458453986   14.81336821086596   -7.33964058715041
H          -3.63543229612358   17.92568393099067   -8.71926733191310
H          -2.29421837817355   18.66242948649536  -10.59647855446970
H          -0.22306531595532   18.54943493604178  -11.92382793038515
H           1.59491502682236   17.02497439311793  -11.26208166368886
H           1.35552221512416   15.60116083551045   -9.26579847172301
