107
 SCF done       -217.119715576711          0.000883589325
C           3.68977627335058    4.66920283379478   -5.67523605441696
C           2.38336151864057    4.44951271814519   -5.32349273531380
C           1.92252852233656    3.26037592792800   -4.72312221007936
N           1.49660416331370    2.32394985917558   -4.21420371680813
C           1.33498120485879    5.35274154667184   -5.59362820443839
N           0.44743312106006    6.04290565256357   -5.82752854485389
C           4.73647171646828    3.65518261626970   -5.67904204469700
C           5.75657626329441    4.06168665841219   -6.58918960257765
C           6.84223138843257    3.27378541583498   -6.84345556597399
C           6.96413709198836    2.03203917461830   -6.17940003432879
C           5.95951402880855    1.63296968631791   -5.25043404358292
C           4.84180724687737    2.46464569582867   -5.01217241174389
C           6.09813400143951    0.39635129378499   -4.58812346209117
C           7.17347061530528   -0.41285487718931   -4.83491796142186
C           8.15996443110702   -0.02164369691913   -5.75253076756788
C           8.05788669012271    1.17444215926906   -6.40989321345838
C           5.42340928915158    5.38945735743224   -7.13596228074838
O           6.02019370509063    6.02960435876575   -7.96939161892784
C           4.20557601028874    5.82250319646306   -6.38759156249972
C           3.82760509706339    7.12693597638452   -6.39760859517096
C           2.96556063608660    7.78792565898105   -5.48479334413253
C           2.17275279975091    8.89319440068406   -5.74264439532048
C           1.38501163353732    9.24197819552787   -4.64820513016328
C           1.63227706565342    8.43085867272098   -3.52267245351047
S           2.81253210265274    7.24025648862590   -3.81666180736476
C           0.73458354943771    8.78949901009643   -2.49632762056823
C          -0.10798333284405    9.81683445057521   -2.97079005237694
C           0.31808406688454   10.17353176510764   -4.31938406198163
C          -0.15862725457463   11.18785932775640   -5.09353090351276
C          -1.13318314519186   12.10417046954687   -4.63812806147591
N          -1.88453212387725   12.88807136581276   -4.27242510540272
C           0.34163063792808   11.43301243494877   -6.39116144511625
N           0.74808181158249   11.63824251178048   -7.44322445953426
C          -1.13526021434864   10.12729778214314   -2.08874390567278
C          -1.06926986760562    9.35212313843281   -0.93526773464271
S           0.30470429623145    8.25329429711372   -0.93605826200312
C          -2.02877008778547    9.27562646536326    0.09160862956743
C          -3.34732597989933    9.75064331265564    0.05114976513089
C          -4.13069483230803    9.29844112657943    1.16808969611036
N          -5.41928202354601    9.61363490432584    1.29462036693819
C          -5.94812541598859   10.34818111737300    0.34000850757964
C          -7.37549923314879   10.72910665533399    0.49014087692835
O          -8.05475136388853   10.36121656914104    1.42469329399375
C          -7.90373671623293   11.59345817920723   -0.57982329335654
C          -7.19560644447216   11.96446487745667   -1.65124301136150
C          -5.80302358618598   11.54666267957597   -1.89551036026616
O          -5.21797188397223   11.80124484014154   -2.92471622678572
C          -5.17992411535096   10.76891404312886   -0.79226273013659
N          -3.90414051840840   10.47687917177094   -0.92077619520644
C          -3.41251941371293    8.50330240489895    2.06822151576455
S          -1.76990334893467    8.34300394863484    1.53764391116202
C          -3.95128443078155    7.81206357897223    3.16722352263465
C          -3.26673114046563    7.11410260334664    4.15408368652281
C          -4.13949092946540    6.43491989183024    4.99324801976265
C          -5.49353126643466    6.60032241944466    4.62491086451345
S          -5.69678446360922    7.65709990634335    3.29811567669730
C          -6.29084735250006    5.76937531834992    5.44796067705061
C          -5.43650514650586    5.09978285307642    6.35905939811982
C          -4.06543422382848    5.51859231097932    6.11903662554927
C          -2.94389843855990    5.12525616377343    6.78812111108901
C          -2.98815623539280    4.21542127269689    7.86574164316943
N          -3.01452733829781    3.47052944056089    8.73669941862341
C          -1.66221503010830    5.60168690612853    6.44073642608500
N          -0.62177310347472    5.98963256253919    6.15486567951849
C          -6.12042588990820    4.19977672329871    7.15303045400875
C          -7.47873850103423    4.12205706502913    6.82278469879504
S          -7.90719870327336    5.24132559314327    5.53136467732781
C          -8.33947258968452    3.20246384983418    7.44805107856648
C          -9.60311209474410    2.80917699816298    7.09763354871489
C         -10.37883556587519    1.76393119840060    7.74273364228841
C         -10.16083697786378    1.22561610357407    8.98317953709751
C         -10.96574056860112    0.21810867068529    9.55563541380094
N         -11.58006785032223   -0.60354849312078   10.07033695811768
C          -9.13912347796739    1.62363792027718    9.87115935945284
N          -8.34295631970188    1.90858089604138   10.64779520119081
C         -11.47713352564569    1.41963841907399    6.84621384928807
C         -11.44780920345977    2.30840320405468    5.73252925720656
C         -10.31981564688573    3.23523440776402    5.88683627213092
O         -10.02755591339106    4.15798638572359    5.14498181944572
C         -12.35232609700456    2.22328390650255    4.71363287950378
C         -13.34200721841333    1.21595090689551    4.75666079300488
C         -13.37588423523681    0.31900031746611    5.86339742002309
C         -12.43086086288887    0.43925343221018    6.90908861919325
C         -14.36095643542378   -0.68858734378834    5.88980190781800
C         -15.26878341921469   -0.80724364516949    4.87237388344803
C         -15.23447883754168    0.07634907250364    3.78360351477143
C         -14.29220981568874    1.06755889270923    3.72753352139302
H           7.59923719917548    3.59201305136139   -7.54464722978217
H           4.09834495888124    2.14436845636563   -4.29885090231258
H           5.33341581523677    0.09816034025134   -3.88604398882427
H           7.26918844860804   -1.35976755675961   -4.32516303329190
H           9.00143815524686   -0.67279246747401   -5.93576703895660
H           8.81485194283229    1.48027966281941   -7.11707983178446
H           4.27653947197795    7.74562130854372   -7.16867754098063
H           2.13795702908545    9.36618819261630   -6.70737092007436
H          -1.92663117985715   10.83652632293382   -2.25364783992641
H          -8.93048721455433   11.90716303384743   -0.44748666003055
H          -7.62605377065998   12.58881438685562   -2.42250229274016
H          -2.19369617433341    7.10886569046674    4.22435413621984
H          -5.68091717663957    3.58910576028827    7.92180544860530
H          -7.87971266747730    2.69335180054987    8.28736194107038
H         -12.30858602816890    2.91022905554735    3.88154326435323
H         -12.47970364464088   -0.25895205453047    7.72947848958002
H         -14.38404879852261   -1.36645979898086    6.73033625910421
H         -16.01817178113478   -1.58384959533822    4.90113909205875
H         -15.95730612580837   -0.03248944702494    2.98900494802085
H         -14.26030968716404    1.75073032959533    2.89147127093479
