107
 SCF done       -203.597241119887          0.000875133168
C           6.28123928159062    7.87451898297742   -8.02281879538189
C           5.38586008462490    8.91833329836129   -8.12047082936623
C           5.16232169348258    9.65913278900522   -9.29544153733818
N           4.95630781582681   10.33611045614543  -10.20134432780295
C           4.49180142092590    9.29834635255659   -7.10160263299831
N           3.68915758366329    9.61387165393446   -6.34219584135226
C           6.91577831960783    7.22408832680124   -9.16769692606995
C           7.43584655713375    5.96970325421822   -8.73741006471255
C           8.02402066447757    5.10022867517806   -9.60895895082041
C           8.11529854643490    5.44816797763510  -10.97590030668866
C           7.61949790501246    6.71169279994549  -11.40645576138249
C           7.02237669516110    7.59676973074281  -10.47845879359933
C           7.71451107053686    7.04811452280244  -12.77092149279437
C           8.25869876353469    6.17233188648160  -13.67135665314235
C           8.73407307210753    4.92283694761464  -13.24768508067183
C           8.66812038793879    4.56881209747943  -11.92685468387989
C           7.19177177107301    5.81679041506041   -7.29119654481186
O           7.44100844175140    4.85128446009402   -6.60015389826900
C           6.58880208646648    7.09981617131793   -6.85483104473755
C           6.52305031980541    7.41395587493436   -5.51036700046113
C           6.34784089058100    8.68117006872586   -4.97061456172970
C           6.24563499909823    8.95730613027843   -3.61460096718699
C           6.04277697676082   10.22798567567738   -3.04158669973471
C           5.96638366221436   10.21217129339363   -1.67317775352052
C           6.12160672349245    8.93112698057186   -1.12193795525576
S           6.33687893468346    7.73712685731812   -2.37161985143894
C           6.13823734799256    8.55902531141541    0.22750017578221
C           5.89987433325798    9.34218311346732    1.36275725659901
C           5.99442388046519    8.62458508830684    2.52905925585040
C           6.31523220395802    7.26350790818814    2.35987105562072
S           6.51660690771204    6.91497448282520    0.66130641887500
C           6.39553199661374    6.37772965798164    3.43325863447881
C           6.64057001549583    5.01295456910941    3.50190749368333
C           6.97022776510176    4.15663115457337    2.40895142111590
C           7.10851111515665    2.73827125612731    2.56799599124920
N           7.69776599256757    2.03471041484231    1.61187712172488
C           7.95130872196731    2.58623651238911    0.43939777724255
C           7.54067924174596    3.92127185937731    0.18780522423089
N           7.13595904579659    4.66976567515665    1.19669436988788
C           7.57544251684320    4.45856918492713   -1.11946120110590
N           7.61895193591233    4.84440838365290   -2.19783764416414
C           8.54642954977716    1.78453255952516   -0.56155587242820
N           8.96688003424837    1.11857165541289   -1.39439205891247
C           6.68705999635379    2.05073075884404    3.76370613268376
C           6.55376509017996    2.90876979261659    4.90132495024335
C           6.53587341166800    4.34163345433055    4.76834988479820
N           6.34870594664551    4.94112402151764    5.93420814195994
S           6.21492995646137    3.82267982915671    7.09449865990887
N           6.37452387638871    2.51863288569461    6.15247123622638
C           6.49245752914170    0.68452578314657    3.78710642024462
C           6.30072352581900   -0.05255523938024    2.59649115330126
C           6.82893370751098   -1.27817804737868    2.20510932677683
C           6.67762443874707   -1.54420627067002    0.85436675914490
C           5.97478750643100   -0.55373323236949    0.16776917631086
S           5.38134619008533    0.64498929284591    1.28163986733662
C           5.85651004316932   -0.31200224938793   -1.20786085778858
C           6.35938115894546   -1.04983616583639   -2.28754147800804
C           6.22632772816562   -0.41623699970105   -3.49817533350415
C           5.60228104595624    0.84298346618032   -3.41852129824869
S           5.17707262989730    1.19301309307622   -1.76021930758510
C           5.31307241499770    1.77647218449313   -4.40322282879863
C           5.65803296362807    1.62553522664544   -5.74109315544379
C           5.36015080106692    2.54611049347315   -6.72713301403666
C           5.75225126236351    2.47178445604857   -8.10805085504247
C           6.55816890857666    1.51882536517658   -8.69344613705486
C           7.01078176892959    1.58293906363208  -10.02406534165976
N           7.44463689438149    1.58362623541822  -11.08876914595144
C           7.06707478387502    0.36875030128116   -8.06072025536073
N           7.50359637447606   -0.60551222128358   -7.63359470913299
C           5.18737401427881    3.62598557990045   -8.80108353310053
C           4.50238433661577    4.43272504333219   -7.85015331410165
C           4.59423681552273    3.79945496691444   -6.51941676947398
O           4.11995231077142    4.22585064857151   -5.48713590228731
C           3.87522238219851    5.59097185208777   -8.20413368056049
C           3.90862322428434    6.00702846057350   -9.55559572153888
C           4.58866289779761    5.20359384803507  -10.51443695045900
C           5.21994767943154    4.00219169764552  -10.11702660847225
C           4.63006251138298    5.63461369127586  -11.85499813061314
C           4.03300916037315    6.80714452280804  -12.23148920475957
C           3.35502006843185    7.59325980790589  -11.28923503609691
C           3.28955920310288    7.19820196639171   -9.98014014951436
H           8.41040426800290    4.15146535731645   -9.26656725156589
H           6.65687499121603    8.54685439149102  -10.83472328787844
H           7.33967557628507    8.00892518994332  -13.09241580976588
H           8.32194532748764    6.43760342995211  -14.71641329436995
H           9.15216124977781    4.23974784135065  -13.97149141261844
H           9.02069715023488    3.60289911570616  -11.59792230942002
H           6.70511798385336    6.58748451658781   -4.83025034696210
H           6.31170913048069    9.53935674956914   -5.62733577031335
H           5.94671923111870   11.11158521248361   -3.64685100305053
H           5.81692892378549   11.08579226143325   -1.06462002878923
H           5.65777551100138   10.38893147459019    1.31668828015795
H           5.83377899206889    9.04515420248631    3.50655866655249
H           6.19487916848946    6.82898336261754    4.39924780151513
H           6.49021287856217    0.17675772451705    4.74183022652674
H           7.40215461729202   -1.89360602968956    2.87571888985698
H           7.10776198951389   -2.39577113409126    0.35937630068921
H           6.82470582763017   -2.00998572004654   -2.15760266433001
H           6.57911195540199   -0.82594310521655   -4.42740191119866
H           4.80706062280986    2.68375679077998   -4.10527513413897
H           6.19894522421190    0.73447521343804   -6.02460745370753
H           3.36116996011222    6.18703437654504   -7.46336282231414
H           5.71381461761904    3.41133684546166  -10.87203545903453
H           5.15072633733190    5.02313750359474  -12.57777769933186
H           4.07840953897675    7.13333658057122  -13.25959610287955
H           2.89005855981279    8.51606499896347  -11.60031127453226
H           2.76100853539017    7.79645301738428   -9.25122858734307
