107
 SCF done       -217.265167975654          0.000596378899
C           1.24443552666913    1.53711477990174    2.15427790155821
C           0.02261592378896    1.40018498081880    2.75518717825800
C          -0.17908710581626    0.75449301373131    3.99244708876990
N          -0.39915993172529    0.26070508505947    5.00502861358678
C          -1.18708640717653    1.83934899662580    2.18270490983869
N          -2.19924130139280    2.16438523767655    1.74951396550212
C           2.48204952581148    0.90563464252283    2.59539059552686
C           3.41601551742885    0.92755513517185    1.51825260659449
C           4.65889980311309    0.37427774251016    1.63312629212391
C           5.03591618184806   -0.22588329667831    2.85546795312693
C           4.11384151829151   -0.23597342820987    3.94215125163984
C           2.83024994099285    0.33722070562693    3.79168898129821
C           4.50595355560909   -0.82969290311760    5.15925716272776
C           5.74674827199229   -1.38964316878767    5.29747682646085
C           6.65294063305691   -1.38098587927714    4.22647353760408
C           6.30493808853809   -0.81193156369129    3.03153416634356
C           2.81741150364425    1.62759087039843    0.37025193039979
O           3.28199010906570    1.79135724355264   -0.73264760961979
C           1.50797620363119    2.15820952157004    0.87145116752524
C           0.89055839364767    3.11830753266589    0.14719528609803
C          -0.17174353618395    4.03373739053694    0.48098420761664
C          -0.98239121578302    4.49967218691650   -0.56358455858843
F          -0.72845175261354    3.98376373284611   -1.78787772835849
C          -2.00767361235637    5.41994677441002   -0.38930682194826
O          -2.79748515586533    5.96403653138125   -1.33618053446969
C          -2.82111237048416    5.42857378171332   -2.64557583438632
C          -2.21379700675127    5.89145593501420    0.92168427586381
C          -1.40572115934427    5.45324228568706    1.96266311123513
C          -0.36558418613266    4.54482164668874    1.78430543327429
O           0.48911177754526    4.11563371552560    2.73669375910417
C           0.59601704918005    4.80269136458159    3.97053896536325
F          -1.71849426877516    5.88314183885687    3.20766586126418
C          -3.28144812909721    6.85496939104801    1.19531908145622
C          -3.00721680958870    8.05281736767565    1.87027057482679
C          -4.05216140913442    8.98394597168276    2.22126946116361
N          -3.75232640921945   10.11340366119524    2.89731647559218
C          -2.50805076258254   10.35872084036790    3.19631913330197
C          -1.45742784618617    9.45083565600224    2.80246708022678
N          -1.72443056956776    8.34560752951299    2.16587139022590
C          -0.10662593420033    9.74873836326799    3.11584798752440
N           0.97674889616334    9.99875743860454    3.39044613476336
C          -2.17537145492972   11.53351958485623    3.91868475053858
N          -1.85048452557277   12.46368935546371    4.50200882195738
C          -5.38855103692108    8.74352412099222    1.88308340716609
C          -5.65330883446212    7.58442979751425    1.15095899168080
C          -4.60993422832914    6.63312036575907    0.82343529865920
N          -5.10543303088300    5.56992411726219    0.17845713480417
S          -6.67660666680135    5.76026202261981   -0.00946788791413
N          -6.85260569610606    7.17109886273067    0.71805245542538
C          -6.44983510999834    9.73028783520417    2.17063824428453
C          -6.84413027852260   10.51000574659220    1.07767040943210
F          -6.20842696216867   10.24684976219107   -0.09430944348333
C          -7.79949881318953   11.51324989900727    1.15212377001957
O          -8.22770860653252   12.33235250969600    0.16745528287357
C          -7.79370513622757   12.14444752269131   -1.16473412436695
C          -8.37411046863305   11.75394585277450    2.41974484838080
C          -8.01578671953270   10.95115064653630    3.48986327140719
C          -7.06407078317123    9.92626888730392    3.40952305422104
O          -6.92243677400237    9.21473852230866    4.54895711867091
C          -5.90661554497724    8.25990791742532    4.70976397635168
F          -8.64891715193082   11.11104418370828    4.66284756702450
C          -9.36902157910628   12.80576875585988    2.55452277462934
C          -9.36449967410612   13.72151189705044    3.54360055650104
C         -10.38966847581337   14.71466519960816    3.84672067525187
C         -11.56254488965685   14.90781595777590    3.17031035928239
C         -12.52578185203915   15.88083942513311    3.51553688276746
N         -13.34582909850745   16.65273887590250    3.73698677741743
C         -11.98089563142259   14.18433113462653    2.03264681720054
N         -12.39728140980306   13.64667333563258    1.10749482401888
C          -9.95320198564310   15.45264189714717    5.02435763459412
C          -8.66301345202734   14.98822274298788    5.41059474459162
C          -8.21991850680191   13.93138271487940    4.48864378386254
O          -7.13206980682941   13.40706571455283    4.44671054694832
C          -8.00230194693659   15.50177849027932    6.48941615041101
C          -8.61902610805707   16.51402533911332    7.25697886748718
C          -9.91134894140446   16.98312204287372    6.88076604476351
C         -10.56601847101206   16.44045156866019    5.75251527054125
C         -10.51881303917644   17.99272861866882    7.65595717483745
C          -9.88306893029863   18.51305812132444    8.74985802178848
C          -8.61073010774160   18.05023124468870    9.11896909068710
C          -7.99220357074700   17.07233506335449    8.38848282420379
H           5.34785707437206    0.39560194106712    0.80185740834506
H           2.15520599868040    0.32206709387123    4.63315701772169
H           3.80397007756860   -0.83680045044159    5.98015872311830
H           6.03697755920223   -1.84308020015588    6.23334887893204
H           7.62797747193052   -1.82700297783004    4.35322337704962
H           6.99844226323335   -0.80201529267776    2.20348315315572
H           1.30150474282171    3.24779878776421   -0.85125307919379
H          -1.87774073385936    5.59740921771125   -3.16982214108623
H          -3.61791802060308    5.96684169836394   -3.15649591800263
H          -3.05033844172448    4.36125603523405   -2.63610404597950
H           0.70416424258602    5.87919136697667    3.82306359359845
H           1.49749864427853    4.40749346504236    4.43725663407379
H          -0.26180513988571    4.60478222343033    4.61707265750884
H          -8.34886964985096   12.87718965970655   -1.74805406102953
H          -8.02601553718799   11.14018218611665   -1.52630731630402
H          -6.72281627358248   12.33230950003871   -1.27030553287614
H          -4.91693388687251    8.72398046259026    4.70038473538592
H          -5.95433004390181    7.47613640256218    3.94840785726500
H          -6.08430252692724    7.81866496255375    5.69003826816181
H         -10.12823640656673   12.82137797846304    1.78413675551689
H          -7.02352363344211   15.13221289752109    6.75660464692254
H         -11.54181894880273   16.81959458461766    5.49351196273234
H         -11.49820459174670   18.34578769135134    7.36810833226971
H         -10.35704967146085   19.28465254727519    9.33786667932679
H          -8.12376920112838   18.47265195075579    9.98516783507283
H          -7.01298160698685   16.71170196372630    8.66719954871435
