87
 SCF done       -172.490366130081          0.000915650412
C           0.23354550278794    2.49151622042955   -2.91435290974651
C          -0.95289805786482    3.16935035352418   -2.94115625179032
C          -1.51645909949018    3.75523427692076   -4.09181987654937
N          -2.01485978435574    4.28368501985142   -4.98068321676394
C          -1.78923350170592    3.32535477237351   -1.81531492840094
N          -2.53212478649380    3.41547223398802   -0.94503026086176
C           0.98030478601080    2.03123150668417   -4.07580436081031
C           1.85716561538020    0.98016219664753   -3.67041884443464
C           2.64823376397588    0.32147046805611   -4.56821749607655
C           2.60096868434072    0.69137775103701   -5.93070465994022
C           1.73513534061030    1.74777283006795   -6.33993903815921
C           0.92608031519572    2.41177369118434   -5.39053302035200
C           1.69916458889245    2.10554235134017   -7.70341394583280
C           2.47691476309005    1.45187569937320   -8.61972367780450
C           3.32876186757988    0.41250889708274   -8.21586204606389
C           3.38946424241407    0.04058183105541   -6.90040533127283
C           1.74911240198888    0.77912441287179   -2.21524348832349
O           2.28715097288134   -0.05487839420562   -1.52792236829768
C           0.86528634679988    1.89053830328151   -1.74505822463385
C           0.90469077588442    2.31573815060815   -0.46625865312421
C           0.36023112619098    3.58388832873807   -0.03401761717713
N           0.48635737165593    4.60309080651950   -0.89002848790541
N          -0.14372075059537    5.69699307379889   -0.71606971878860
C          -0.95752338116806    5.87372376026391    0.32604952531591
C          -0.95223266273845    4.95807443786513    1.39075124445247
C          -0.26677486648369    3.77960571689587    1.20646490531757
C          -1.85498914538052    7.00883524775467    0.23382531283844
C          -2.24338750510271    7.81616012865356    1.31118126175973
C          -3.08806354534035    8.96866769063416    1.10467964294767
N          -3.54770882655156    9.65414502653177    2.15969390952851
C          -3.08854835795706    9.37826984509749    3.35325306895364
C          -2.11153289214935    8.33943795738339    3.53616049519935
N          -1.76593838769407    7.55954537666779    2.54469218746782
C          -1.56911185477289    8.09405809662495    4.82278876207449
N          -1.14376804569670    7.91707855930721    5.87133759656304
C          -3.61139691138963   10.05623061875128    4.48169584963280
N          -3.99980626687163   10.57931553967345    5.42386596230793
C          -3.47400228249423    9.38762817836204   -0.18644454512049
C          -3.15041236106664    8.53777788090693   -1.25531459514343
C          -2.35482840726068    7.34999778462215   -1.03427521607242
N          -2.15744336927118    6.66826097865425   -2.16468114299329
S          -2.86766292206632    7.43497156900708   -3.37095964212142
N          -3.46950935816320    8.67920528485805   -2.54556585480004
C          -4.10807656328590   10.67437369380340   -0.32143839000395
N          -3.84853517027131   11.55893029015450    0.65008873917346
N          -4.40941908895891   12.69262961643594    0.69649787042773
C          -5.22743431107061   13.12171706181273   -0.26925380324209
C          -5.44747129078975   12.31847732015524   -1.40424780115084
C          -4.92498934680896   11.04746031701743   -1.40217295315896
C          -5.78365157549448   14.44176834358082   -0.08107082167080
C          -7.04823953982499   14.82441731234914   -0.36566980576633
C          -7.60136238040598   16.16005410803255   -0.16681158150359
C          -6.88221211258486   17.31692975390748   -0.04900070422074
C          -7.46345063357668   18.59321295865002    0.11285785883800
N          -7.88035870177562   19.65395199265738    0.24588680186474
C          -5.47456732802782   17.40047681390489   -0.12680667820110
N          -4.33967672364109   17.54900718248825   -0.21008002412819
C          -9.05114934793125   16.05029987233527   -0.21342974585181
C          -9.39757018337112   14.70717438034750   -0.54055202132834
C          -8.17729830940262   13.90265886877916   -0.70349171756554
O          -8.11159274915791   12.73237952076993   -1.00716842833254
C         -10.69841536014271   14.30938795336314   -0.66760078598291
C         -11.73015243127955   15.25288655651692   -0.46854647925243
C         -11.39172771288024   16.59637732426424   -0.13233021953713
C         -10.03745320928582   16.97947348377244   -0.00717319963846
C         -12.43036432067514   17.52865142543942    0.06791535189635
C         -13.74031981875870   17.15479683602198   -0.06010931537882
C         -14.07237416751723   15.83259443360261   -0.39250149579303
C         -13.08909809642451   14.90196321031226   -0.59235473159144
H           3.30167568682194   -0.47442839890303   -4.24305071034521
H           0.28578060916166    3.21503832937459   -5.72101293461355
H           1.04052026411183    2.90476366041842   -8.00994035877610
H           2.44032870195411    1.73171680070189   -9.66184606426606
H           3.93619121483906   -0.09170326938710   -8.95236195632224
H           4.04311663258009   -0.75887256536681   -6.58373954057008
H           1.41480033520830    1.69681564690292    0.26122036912469
H          -1.50474506939606    5.16694217118511    2.29182624266373
H          -0.26077171301609    3.00226481596327    1.95431656646436
H          -6.00550502135539   12.69699164603208   -2.24417138844052
H          -5.10800226532209   10.34493318618073   -2.19911508229659
H          -5.11005698962287   15.13930780760731    0.40063108176461
H         -10.93593599519427   13.28607031870517   -0.91800018009148
H          -9.81223012474026   18.00086516247295    0.25585033157664
H         -12.16959043008776   18.54540677486692    0.32222250250899
H         -14.52858004846970   17.87618825077589    0.09400383068613
H         -15.11133629551881   15.55527626088799   -0.48878499859530
H         -13.33895015418742   13.88265831136319   -0.84780393437623
