105
 SCF done       -200.976324995458          0.000809508690
C           1.43725438388269    7.19953242602643    4.59620433257375
C           1.11382856074389    8.12059860953080    5.55941243542627
C           2.02826438128884    8.62090915240256    6.50869195943451
N           2.72639286432580    9.06027126848899    7.30759846545643
C          -0.15216678682194    8.72616837858876    5.70425733909033
N          -1.14171969834652    9.28317538914900    5.87567812097984
C           2.76352483158786    6.64428971289733    4.35827187283271
C           2.72019957697582    5.87356590075601    3.16218825575571
C           3.82227341787901    5.22866284887444    2.68076903290438
C           5.04164189713582    5.32453622919108    3.38868943720508
C           5.08989555938770    6.08385843727109    4.59314550237245
C           3.93180926508830    6.74294773176898    5.06635281891953
C           6.30808872403628    6.16108311954715    5.29832636018355
C           7.42659057122858    5.52245754785596    4.83635378258835
C           7.37871403287330    4.77762934829676    3.64863781941689
C           6.21180507815517    4.68140840472642    2.94009830865395
C           1.35187070443099    5.88716933333693    2.60932822751936
O           0.97264872146536    5.29477763596008    1.62464934339322
C           0.54603859433715    6.68544157985682    3.57507025502794
C          -0.81728137798937    6.72376714181421    3.61718101979704
C          -1.70951213573895    6.33659468446326    2.59088195747346
C          -1.57560671764815    6.36052670209236    1.18352024873363
C          -2.79485372122623    5.88233118488201    0.65486728053515
C          -3.62397166510145    5.64591647608600    1.79339100069720
N          -2.96988761089524    5.92619993592287    2.92065099030328
O          -4.88012117953851    5.25721803601447    1.76835972376974
C          -5.50110235598453    5.09248564552284    3.03287800941857
C          -2.67913522543095    5.97499225090253   -0.75733597555119
N          -1.48749673625604    6.54023616193557   -1.08623614479532
C          -0.81971173829357    6.78303769514955    0.04097809025412
O           0.35008748540784    7.36677803414646    0.07670572468448
C           0.91672462461110    7.70213125892371   -1.18030874321972
C          -3.62149169773099    5.56799997383816   -1.73471575368735
C          -3.67969182011410    6.17243103073339   -3.01834700884926
C          -4.58946061769310    5.70423891186268   -4.02942788512510
N          -4.64010616377731    6.33508950597336   -5.20960114332845
C          -3.78826413687307    7.28611135628816   -5.46363356419159
C          -2.88055390088487    7.72996921712358   -4.48025514880677
N          -2.88139359335680    7.21609361473097   -3.28433678278664
C          -5.45420139419348    4.59875857788224   -3.79923937081414
C          -5.39299313644376    4.00091343243922   -2.52296345697449
C          -4.49820202701490    4.48894070906126   -1.49881263234123
N          -4.52517913198461    3.71859362122518   -0.41282723715412
S          -5.57345968451114    2.52901908289138   -0.64384268980092
N          -6.02380478181858    2.89348181507106   -2.13928335920522
C          -6.28917714570625    4.09550117894357   -4.82406821093065
C          -7.49863484205937    3.35288215705524   -4.70726651433115
C          -7.90263362235594    3.06156668394013   -6.02828337472080
C          -6.94009693101677    3.69817328015117   -6.87026776502798
N          -6.00111514573681    4.29640314622134   -6.13921392970796
O          -6.97383403981536    3.69969372323487   -8.17976033424755
C          -5.97193325051829    4.45637266931623   -8.83953025328117
C          -9.13134942368417    2.35662549610279   -5.94102789997729
N          -9.46393475870793    2.21290310543560   -4.63666459477839
C          -8.53286424444606    2.80190294438666   -3.88443970006325
O          -8.62715357551767    2.89151114850847   -2.58069581258304
C          -9.71216236453820    2.19687818120768   -1.97420954303289
C          -9.87565750053674    1.89806473890685   -7.04839534776397
C         -11.05215022111364    1.20397768860604   -7.07055180647929
C         -11.67304254486095    0.69876197559273   -8.28361949426763
C         -11.37994104653977    1.06371909781648   -9.57343812160235
C         -12.03791826851910    0.54066809941481  -10.70662566803153
N         -12.52784224461940    0.15652614861280  -11.67158988978776
C         -10.43051272810174    2.02721292269251   -9.97592427112504
N          -9.70083547371769    2.80095686046559  -10.41045254841415
C         -12.71901578475654   -0.23979795101743   -7.89454934604218
C         -12.83637500240845   -0.22024673102981   -6.47697467705655
C         -11.86231902092569    0.73545464593641   -5.90677085440353
O         -11.79530861407527    1.06439477637108   -4.74652066722885
C         -13.74797958638668   -0.99247099567434   -5.81797855807017
C         -14.59417591075954   -1.84633537912767   -6.56074735568963
C         -14.47419597211415   -1.88167521046886   -7.97981771943531
C         -13.52502068132112   -1.06437132624386   -8.63498687552994
C         -15.31902649716315   -2.74139937747487   -8.71137761141013
C         -16.24041790074607   -3.52666180937318   -8.07408775463665
C         -16.35943287928677   -3.48908394168135   -6.67672512945889
C         -15.55376720787628   -2.66709458422535   -5.93646060631279
H           3.76417577964212    4.64918209748449    1.77124626305781
H           3.99689227770580    7.30269947844125    5.98598345539670
H           6.34023831289605    6.73676314201461    6.21172050565699
H           8.35485652903517    5.58758811232609    5.38398303587312
H           8.27056677193882    4.27966365730360    3.29852088892739
H           6.16849784582904    4.10786999441569    2.02562178084927
H          -1.30872031411321    7.02785522948370    4.53406648618361
H          -5.02564853530740    4.27979192884386    3.58524099663463
H          -6.54432753707106    4.85820401376276    2.83178691610155
H          -5.41578490161076    6.00833814557628    3.62076381968056
H           1.77049138358334    8.34333375125116   -0.97045338446510
H           0.18047095160972    8.21437367038362   -1.80195550294929
H           1.23901500170536    6.79521948464173   -1.69532224359617
H          -3.86741276584283    7.77469239336831   -6.42488130910266
H          -2.22013811588031    8.56808925230726   -4.65508401630211
H          -6.23632729758851    4.44673670555462   -9.89457750313814
H          -4.99176731546824    4.00125706788938   -8.68260547342902
H          -5.94886438808826    5.47548606808476   -8.44998708643064
H         -10.04716662383389    2.80369293127194   -1.13425800665771
H          -9.35645970197359    1.22965132443327   -1.61309208880573
H         -10.51223413696861    2.04086149970222   -2.69962032842169
H          -9.39848947115953    2.11637084818779   -7.99631283688146
H         -13.82142388460666   -0.95415649254749   -4.74115133135235
H         -13.45742103744721   -1.11708429473428   -9.70989824556250
H         -15.22479579869015   -2.76526308200686   -9.78718492385941
H         -16.88351391410163   -4.18112486196884   -8.64330036449310
H         -17.09260728565435   -4.11490682147449   -6.19004725135152
H         -15.64076163790996   -2.63409771819964   -4.86017083502137
