101
 SCF done       -188.642842948589          0.000468742583
C           3.63039303223907    1.22977217169621    8.53829162153414
C           4.36781341118873    0.48312994644073    7.64727698525876
C           4.55805876743732   -0.90851051255742    7.75166355256036
N           4.75402313379538   -2.04061530990406    7.77419730900464
C           5.02127891271418    0.97652205004675    6.50108441860781
N           5.57188597822295    1.29190265405294    5.54259888656577
C           2.92531010160616    0.69143005077986    9.70048088335637
C           2.24006972730523    1.75888435845170   10.34693724106922
C           1.48086094360326    1.56004006449932   11.46244362311508
C           1.37134476848645    0.25644199077264   11.99828881188496
C           2.05845395553707   -0.81603085899637   11.36203055907783
C           2.83647353652504   -0.57786668789491   10.20428114885151
C           1.94591480037198   -2.11117089561323   11.90578691373923
C           1.19007431832312   -2.33859222933713   13.02381810832058
C           0.51223504914092   -1.28182482253693   13.64852979527318
C           0.60123561199234   -0.01161856138646   13.14634950328669
C           2.50040278798790    3.01498357034257    9.61950180259039
O           2.06366975347702    4.11538271462934    9.90088978625577
C           3.38866117046781    2.64905474248907    8.49516003398265
C           3.88938960115034    3.54448171709199    7.57037441396445
C           3.61314894251034    4.90742803151018    7.55709824604316
C           4.09184384668622    5.76991272128968    6.58785093295597
C           3.81335091740795    7.14972718863595    6.48387420186784
C           4.37224904541128    7.74990752531370    5.39137401152165
C           5.12525062899467    6.87042933856533    4.58868932692973
S           5.11774441229277    5.26066923153762    5.26488920835536
C           5.77308501957696    7.15931970254416    3.39382822998442
C           5.75879614095130    8.37201516304496    2.67700118379959
C           6.42997731344201    8.31329497861278    1.49016195574530
C           7.02669977104677    7.06013909725290    1.21515810906138
S           6.70478511233649    5.95879707056566    2.53955369749343
C           7.69067528346418    6.76073892349946    0.04447997329282
C           8.35954196112995    5.58690675114480   -0.34108824158764
C           8.67819275397295    4.49924571551606    0.48647328803820
C           9.38173015509124    3.40540390658068    0.03184418535778
F           9.58244499683790    2.41425372964447    0.92063509410914
C           9.82527244445182    3.22014091003364   -1.29148738314858
C           9.44904436102431    4.28095242305738   -2.17276532725378
C           8.77166051687639    5.45525697895148   -1.70440128744296
N           8.56284239259093    6.33197286965386   -2.67894234906534
S           9.15874209876565    5.73886310507635   -4.05469034460005
N           9.71334673023311    4.34083585504581   -3.47282633748336
C          10.53336307573572    2.12491186189973   -1.82208574740252
C          11.36343039033109    1.21039660822973   -1.20950585534025
C          11.95027493921376    0.10746369929583   -1.87872661693919
C          12.83573362523244   -0.60129866617869   -1.12276621417515
C          13.01931748943139   -0.06899502828991    0.17104244648952
S          11.99122559905735    1.31061308897220    0.42115749445982
C          13.90838792442811   -0.50762247735090    1.14587540722036
C          14.75736397063806   -1.63040165371377    1.09321124786511
C          15.54643667421432   -1.77167778417909    2.19957112407033
C          15.36665697261402   -0.75928695171058    3.16645042778455
S          14.13324585298394    0.36472417577944    2.64107050674308
C          16.06852339598497   -0.62501135431825    4.35106838760859
C          15.89090666216993    0.43805799408792    5.22928193468871
C          16.60153027052334    0.61684253233966    6.40070931165656
C          16.48357402878868    1.71895768678991    7.31972812329488
C          15.69291911387461    2.83769222398486    7.18138851348695
C          15.63428007123500    3.88393136130236    8.12230288736183
N          15.53384577249615    4.77134505480263    8.84558689849538
C          14.85292523660662    3.12403402452763    6.08767461734501
N          14.15306219208567    3.44497389323686    5.23403975055697
C          17.39071331194046    1.46759917706348    8.43856507989094
C          18.07689718914293    0.24393671225485    8.19662776436223
C          17.61678423858871   -0.32642904147740    6.91673930890827
O          18.00521276011086   -1.36102936907258    6.40739880709677
C          19.00269270453866   -0.25013007300387    9.06784832709666
C          19.29174740854135    0.47113295238716   10.24885709672121
C          18.60813690567745    1.69437387249776   10.50037972772785
C          17.65275965220187    2.18083480829881    9.57659467351988
C          18.90345942575760    2.40619477504836   11.68005854258507
C          19.82999058387178    1.93435005062307   12.57006729207215
C          20.50257241950088    0.72935638285575   12.32134546103653
C          20.23880834694534    0.01326317197047   11.18506230679303
H           0.96887144993771    2.38708872569695   11.93185122779649
H           3.34317274097877   -1.41269251272187    9.74712836381033
H           2.46935450937716   -2.92213231791608   11.42063139215385
H           1.11050991768125   -3.33490630367628   13.43263815876044
H          -0.08057247753962   -1.47852452812552   14.52947708244266
H           0.08153717709746    0.80677584137989   13.62325463697357
H           4.53915510246069    3.17002149065728    6.78882444785814
H           2.97641516453070    5.31873437874091    8.32744091009516
H           3.20289160825106    7.65359931517454    7.21179713450983
H           4.26131919888046    8.79193543137641    5.15130689989725
H           5.24388878173863    9.24389932910249    3.03736230064944
H           6.51446980618871    9.13433906415764    0.80053326476872
H           7.67585057133744    7.53574611928377   -0.71213407759191
H           8.39076741550736    4.49897440538440    1.52516672927546
H          10.46027981406389    2.03888323683174   -2.90012674020472
H          11.69242196467037   -0.12986602146746   -2.89569511585779
H          13.36856914847123   -1.46848869515819   -1.46816980558821
H          14.76514106835728   -2.30431947097581    0.25564473669646
H          16.25766873969922   -2.56499462466471    2.34520602706799
H          16.80679520841306   -1.37835419040415    4.58664070870917
H          15.14548662195849    1.17634992329648    4.95977229046475
H          19.51008202190459   -1.18049904613696    8.85954970880221
H          17.15264424455453    3.10993684367623    9.79857694623718
H          18.38295168993335    3.33412286832842   11.86706661156810
H          20.04941135993134    2.48786382984439   13.47094836467348
H          21.23062445965283    0.37096473283726   13.03394682363890
H          20.75380028136514   -0.91576890545550   10.98784616900224
