99
 SCF done       -200.990581744172          0.000313378664
C           3.31274275423333    4.05319926955814   -3.57213587614873
C           3.91886377113560    5.23758869176793   -3.24369853417505
C           4.63104290282572    6.03351558350233   -4.16315042866150
N           5.20765254966075    6.72147876769075   -4.87828687524499
C           3.96893388578060    5.73831384076005   -1.92684821485417
N           4.05502866579005    6.15235488626490   -0.85949198530555
C           3.46414546375876    3.34832544002226   -4.83890131908527
C           3.16970688056061    1.96906662257367   -4.62608632487107
C           3.26629631637779    1.05355668034032   -5.63418680715285
C           3.65739361581653    1.48498947594005   -6.92199135887213
C           3.93835214120423    2.86473485159257   -7.14315913586710
C           3.83703705724998    3.79018244281123   -6.07923081013554
C           4.32145168624146    3.28169635942580   -8.43403540210824
C           4.42544823035998    2.38069099637477   -9.45855227645238
C           4.14928338354645    1.02268743986763   -9.24014090619105
C           3.77415710681658    0.58438261193461   -7.99909926074647
C           2.76197322349972    1.76644338396209   -3.22421505363366
O           2.49467872144511    0.73051401238340   -2.66201733104878
C           2.67316180815668    3.14083534211005   -2.64631255838985
C           1.97481386162860    3.34195666388846   -1.49875332639086
C           1.39450033640836    4.53567566847892   -1.00296828737451
C           0.98704384759525    4.76153023445056    0.30221580988135
C           0.39368019687001    6.01045759165387    0.46042501757452
C           0.30915192835090    6.72984215249736   -0.74702727753914
S           0.98107180699164    5.88390254021929   -2.05981974050719
C          -0.33290874377492    7.96872326060321   -0.49927402897528
C          -0.64298970476370    8.03792467103826    0.87412614796126
C          -0.20016969255905    6.81224605061572    1.51929090316906
C          -0.33010996885193    6.47992740291176    2.83520410438121
C          -0.93721914988290    7.34301070211477    3.77280329212715
N          -1.43471790892003    8.03300590723360    4.54129790346519
C           0.11943647810482    5.24390810393007    3.34744321810256
N           0.47317389915785    4.23728992411213    3.76642260282842
C          -1.28849419269329    9.22342203836539    1.21905263118952
C          -1.46933506110273   10.03566668882543    0.11534307598764
S          -0.83590849048883    9.35048782823310   -1.36353540306074
C          -2.12458391936924   11.29932813217410    0.04062671121662
N          -2.23445097656246   11.85090580742185   -1.15945036778969
N          -2.85884182001974   12.96429118748391   -1.37127337934113
C          -3.44378048083878   13.66136499982141   -0.40770340726276
C          -3.36571440668370   13.19928945439259    0.93703367096657
C          -2.67956772585985   11.96475118242797    1.17062727767315
N          -2.67771330313968   11.62978392977340    2.45729491921299
S          -3.46027938019559   12.76168048580503    3.28859294856844
N          -3.84268503630938   13.72627284480511    2.06060907369866
C          -4.16058286298214   14.83014710110669   -0.79721083691484
C          -4.89965288719448   15.68989922343995   -0.00681086105123
C          -5.51612304587062   16.67742544381935   -0.77225311186880
C          -5.22743889764079   16.55767546258117   -2.14742400685015
S          -4.20177833748054   15.23942350773135   -2.49701837771817
C          -5.93075603352209   17.57427183338505   -2.84065783650348
C          -6.67244899178018   18.32829514115973   -1.90694007634674
C          -6.41263182915928   17.80493807639319   -0.57466038222916
C          -6.89872469703960   18.27492720677420    0.60915537337669
C          -7.73515635488334   19.40948578271206    0.69413087022491
N          -8.39629463710152   20.34081335432811    0.78984183687744
C          -6.57878559026793   17.66935471103808    1.84361652196816
N          -6.32720958931106   17.18142150797753    2.85013628425940
C          -7.46121967204159   19.30733808178195   -2.49907097410596
C          -7.33081327627613   19.31465090970769   -3.88037904550285
S          -6.16675837739951   18.10836098810579   -4.43675243909934
C          -7.94432696117404   20.12182854058901   -4.86461572176442
C          -9.14226791218636   20.77168178592548   -4.78759779748685
C          -9.68068100827549   21.64333126124395   -5.81710213378484
C          -8.96297779873709   22.26628875557128   -6.80458166177384
C          -9.53124933818606   23.12498990768227   -7.76849247790100
N          -9.93749215766361   23.82481820377704   -8.58267191466006
C          -7.56527593789805   22.16678132752649   -6.96838489918689
N          -6.43079940162862   22.14578992371534   -7.14534577746205
C         -11.10476319693122   21.81041666438458   -5.56121829535411
C         -11.42640489700872   21.13624083211522   -4.34898742398155
C         -10.21868044518760   20.50187979936900   -3.79572734473526
O         -10.15410619547723   19.83760257215013   -2.78397661458231
C         -12.69592679353557   21.11736774685784   -3.84756591957901
C         -13.72371230860007   21.78185514318896   -4.55308697826348
C         -13.41245204529078   22.45124084884709   -5.77212839634446
C         -12.08689470093275   22.45674653675336   -6.26417864703292
C         -14.44874531848331   23.10127779130822   -6.47269594409038
C         -15.73052305519814   23.09269477880555   -5.99346948868914
C         -16.03517900277222   22.43523573657453   -4.79223046097569
C         -15.05283767361649   21.79468389645097   -4.08669911267899
H           3.04747757410032    0.01179918348677   -5.45268223125125
H           4.04498399293176    4.83105249877666   -6.27325964430404
H           4.53626159986748    4.32772250426984   -8.59610825732021
H           4.72180621328565    2.70956194849566  -10.44326889734237
H           4.23521977833525    0.32559014993736  -10.06012170200618
H           3.56064696667580   -0.46010205545295   -7.82532325010302
H           1.76148870858774    2.44706192740169   -0.92113021864504
H           1.15064092571343    4.04822483287676    1.08976398921411
H          -1.62154021520991    9.50380722830870    2.20199904395217
H          -4.97477673730122   15.57227236860114    1.05912658435514
H          -8.09636583206883   19.98923668619775   -1.96647966336899
H          -7.40653029392249   20.16937521884075   -5.80474050308951
H         -12.91218175521421   20.60111522210953   -2.92407277545757
H         -11.88374267539544   22.96582065753731   -7.19305834774349
H         -14.20929559685573   23.60771131392507   -7.39618311866652
H         -16.51726831612006   23.59305454781995   -6.53783807186452
H         -17.05194820566966   22.43827795806815   -4.42898857300993
H         -15.28085746057600   21.28655527133651   -3.16119392232959
