105
 SCF done       -210.614059182243          0.000698347480
C          -1.12977153220107    0.58060293429536    1.11037780891222
C          -0.01112529799226    1.32729912587824    0.84250613980251
C           1.24906642235846    1.08799068123252    1.42916014987923
N           2.29681318489424    0.92847403073387    1.86907966481678
C           0.03149935645429    2.35610192191259   -0.11742069076186
N           0.10970306198175    3.18931348820545   -0.90381036108981
C          -1.15239431016114   -0.62444608642588    1.93307701688886
C          -2.30134309692493   -1.39235850821630    1.58257364933052
C          -2.56980233301565   -2.59157531356412    2.17698541921797
C          -1.69477500480525   -3.07639252478192    3.17548814456311
C          -0.55616560377787   -2.30264688074842    3.54412223076987
C          -0.29701045175484   -1.06847616422305    2.90427442443939
C           0.30019215709750   -2.79150073745651    4.55120263538949
C           0.04798082136766   -3.98861922269857    5.16428496397253
C          -1.07184483113825   -4.75074592660746    4.79957869457044
C          -1.92413235374958   -4.30475843874822    3.82603876541433
C          -3.07848916586109   -0.66522720792981    0.56461943206999
O          -4.07782908139312   -1.02286508651209   -0.01562013693336
C          -2.40852691793248    0.66331401280960    0.43796788089201
C          -3.09236636000030    1.68460143485218   -0.14982736478718
C          -2.87727267610953    3.07367652385200   -0.02808478052018
C          -2.15359971671190    3.76001129784309    0.93852160096323
C          -2.21931276781755    5.13421373586332    0.76732997407144
C          -3.00847481545211    5.51693269568027   -0.34051848570982
S          -3.67006901488889    4.17443125758263   -1.15124047198982
C          -3.02011191947662    6.92819511499878   -0.42000715533299
C          -2.23264812252732    7.43830291852151    0.63611104182078
C          -1.69441362591057    6.32816355927926    1.40422845609006
C          -0.86160804950317    6.38348071020305    2.48338297107923
C          -0.40978961820039    7.60419905617714    3.02703911331766
N          -0.04070807467876    8.59002720510956    3.48153641964579
C          -0.41217877407090    5.20957291683689    3.12421806855162
N          -0.06273702287823    4.24697686501160    3.64056777641399
C          -2.20428442922304    8.82356630119931    0.67018739474823
C          -2.96775166992121    9.38726424070983   -0.34654142964582
S          -3.71457286461460    8.16698694744986   -1.37024146904808
C          -3.22169832019655   10.76276919486095   -0.59006688946591
C          -2.71308977916973   11.82254157838086    0.20923244352595
C          -3.09198160691661   13.18176235798574   -0.03964259208253
N          -2.62015302157521   14.16445424758902    0.74816029867169
C          -1.81103130630456   13.87103880551921    1.72684115642935
C          -1.42642463178899   12.53613682433029    1.96226212962155
N          -1.87077073921354   11.55631825441897    1.22583083104714
C          -3.96850990179747   13.56880577035623   -1.08323244900641
C          -4.42737206251983   12.52443311767504   -1.91296151688780
C          -4.05712370387480   11.15456699542946   -1.65790095674621
N          -4.61201473368176   10.32231379709252   -2.54176323763887
S          -5.49518242157163   11.16669903601101   -3.58368504528911
N          -5.23281025227190   12.62237970637193   -2.97282363042286
C          -4.36722355965970   14.92045569828782   -1.22803285873020
C          -5.22985615543324   15.43608276975339   -2.19006158665898
C          -5.45616783442331   16.79188298354013   -2.00829685792368
C          -4.75794838304401   17.31683453832087   -0.89871450474384
S          -3.81095174849312   16.13479336097961   -0.09319264341930
C          -5.08691419925632   18.68404360265423   -0.77966055546734
C          -5.99624756923756   19.03064015427439   -1.80882251190202
C          -6.23386215864825   17.85403493640205   -2.62848172047556
C          -7.00306438637521   17.76003611720501   -3.75019589193903
C          -7.68072806292235   18.86296401980509   -4.31453536675141
N          -8.22370796393802   19.74188867016509   -4.81092264329881
C          -7.15782788311059   16.54427172537350   -4.45074824126859
N          -7.29520047348157   15.56099422362793   -5.02454417743259
C          -6.42823939669500   20.34626559612707   -1.73790346489913
C          -5.86202353488200   21.02713809096112   -0.66558594520637
S          -4.74579319159283   19.99559910392453    0.24508159163648
C          -5.98548901874540   22.35340404540480   -0.20826063526662
C          -6.89938424666680   23.32180746156075   -0.52439790670825
C          -6.84819880722616   24.68183020904559   -0.01440144504182
C          -5.78379842820775   25.28875211460029    0.60270051354534
C          -5.79566098515329   26.62181991652307    1.06420628465415
N          -5.73889604616704   27.69397885940773    1.47104988563427
C          -4.52284313309334   24.70315534735014    0.84037604189609
N          -3.46436875329298   24.31049395585335    1.05361706175103
C          -8.11161740002702   25.33169012637983   -0.34085681240755
C          -8.90151591288522   24.42339172976543   -1.09968640687232
C          -8.17572292281123   23.15343585427094   -1.26552471815432
O          -8.58440900677376   22.17048837787144   -1.84704416286129
C         -10.14220794951762   24.75370605949086   -1.56274206448688
C         -10.66262921996864   26.03600724963172   -1.27886685739796
C          -9.88315191704163   26.94910650451761   -0.51149196455813
C          -8.60016002657381   26.57751011454067   -0.04748822354819
C         -10.41493639354622   28.22359889105917   -0.22831905678900
C         -11.65522946049603   28.58142181306795   -0.68239614701686
C         -12.42079734805564   27.68215404014526   -1.43948406266334
C         -11.93493273537672   26.43647388478127   -1.73157417057646
H          -3.44129249194791   -3.16263844256152    1.89314687997591
H           0.56397630599357   -0.49488839389164    3.21026848820771
H           1.16241203423440   -2.20213259786259    4.82632088807129
H           0.71049479163590   -4.35505190501075    5.93404259424924
H          -1.25649228518026   -5.69255399577470    5.29431955995361
H          -2.78835843524423   -4.88716368787227    3.54170992851985
H          -3.96556345401438    1.38150889630397   -0.71960705893310
H          -1.65033338032901    3.26979934101194    1.75163788591424
H          -1.67652129598665    9.42913354136526    1.38308545813875
H          -1.45476927514195   14.69111347397552    2.33334855066254
H          -0.74795941817926   12.26912507776974    2.76018982307223
H          -5.65672607800580   14.81958786487012   -2.95964581514703
H          -7.13000480440361   20.80512224859612   -2.40988963624940
H          -5.24294399396952   22.61785475769782    0.53608161785271
H         -10.71751133173531   24.04480733461547   -2.13949116464174
H          -8.03857278896024   27.29041768336812    0.53485086054808
H          -9.82124037356061   28.91325756791338    0.35362651817441
H         -12.05323903092202   29.56034377275652   -0.46082101954416
H         -13.39735102757777   27.98121105758913   -1.78990266626385
H         -12.51941047530001   25.73936769241763   -2.31400750199231
