107
 SCF done       -219.646995101222          0.000484145710
C           1.91621266575775    1.32732010806003    1.42535224115813
C           0.54733385954744    1.25330719043137    1.46316897440831
C          -0.18724023192601    0.11948065026429    1.05634159910309
N          -0.83028295727326   -0.77813247384687    0.74463317858969
C          -0.27623707652061    2.25966239838087    2.00189368379296
N          -0.97596057281455    3.05326743519094    2.44846884196278
C           2.80322900090442    0.21655077442940    1.09192277345526
C           4.09387582772530    0.48660514867309    1.63435684234360
C           5.12571007525082   -0.39814582768272    1.50711737976296
C           4.91321282243241   -1.60728965424878    0.80753821588876
C           3.63115880750502   -1.87344458502763    0.24466163072065
C           2.57799321332897   -0.94229529502460    0.39963985887424
C           3.43679045974877   -3.07812596519666   -0.46082582789753
C           4.45692603012465   -3.97937444935609   -0.60168697501269
C           5.71793129757536   -3.71737770373590   -0.04561070567080
C           5.94109797469862   -2.55676236453144    0.64440630764864
C           4.08316872981343    1.81073724542961    2.27543138532132
O           4.97013820140830    2.35755831551184    2.88901866607079
C           2.74277929053422    2.39078150808543    1.95494954354698
C           2.57397371100016    3.73273555613455    2.11280556834496
C           1.60077651398187    4.59009274140571    1.55685507356972
C           0.74497431544061    4.37436907091669    0.48344634530411
C          -0.03939600310036    5.48424903502291    0.20787758703955
C           0.22428579712108    6.57445840812347    1.06758706344045
S           1.44001556011456    6.21959939954325    2.20367719009323
C          -0.61457147997746    7.65127511968913    0.70331153090827
C          -1.42366537669725    7.23685643940346   -0.37893201754597
C          -1.09250733100204    5.86240142643975   -0.71783554266437
C          -1.65097695298192    5.08201948255476   -1.68710556203684
C          -2.67420003141405    5.55217722212518   -2.53710015413102
N          -3.49806796438739    5.93479195335342   -3.23653731573966
C          -1.22026687845092    3.75506574840111   -1.89894798071627
N          -0.85127973248832    2.68207841638725   -2.06463997847399
C          -2.27378013706389    8.23528910414983   -0.82746635652747
C          -2.11077621528925    9.41722473719971   -0.11075973362805
S          -0.89577570098568    9.27789534438853    1.14990390268273
C          -2.77288262866714   10.64841646667555   -0.34351873798247
C          -2.43119250841106   11.80890521537005    0.38802886545232
C          -3.00695976564911   13.09730235836535    0.10356905826069
N          -2.62863122183309   14.16158044893296    0.81911224502450
C          -1.74022620009793   14.02775524341781    1.77430120476272
C          -1.16086314612000   12.74742700300158    2.05186364634251
N          -1.51926253698220   11.69342201276301    1.35892763333949
C          -0.19269306536755   12.60424670715330    3.07644419392556
N           0.59144941157156   12.51772954233682    3.90650811516644
C          -1.36257215138152   15.16274440339920    2.53395210149548
N          -1.03643620307645   16.05977307612541    3.16663757684941
C          -3.96502680056939   13.28807345896325   -0.91879557360204
C          -4.36241335078314   12.11573260783304   -1.60547661404540
C          -3.77324065164630   10.82438612844422   -1.32899738990365
N          -4.28801025275245    9.87675619160281   -2.11311954808698
S          -5.38731431960887   10.52132396604640   -3.08412433057243
N          -5.27262344501138   12.03640642622422   -2.57666326598483
C          -4.44447240005950   14.58218152702075   -1.24177016735354
C          -5.41298016587826   14.89885753691305   -2.18942369899785
C          -5.58880630232618   16.26829693408011   -2.31072058311479
C          -4.74185107349417   17.00954282189266   -1.45519978898130
S          -3.76124106702531   16.00850994760302   -0.47562982789708
C          -4.95578058257119   18.38645818358200   -1.68839225132475
C          -5.94901534544136   18.51648500940908   -2.69241849421806
C          -6.38077409064242   17.19084572812729   -3.10649659459421
C          -7.31267997886006   16.87456917870930   -4.05042330888104
C          -8.01329387685547   17.86076882846383   -4.77714885653100
N          -8.58300305575960   18.65501987747246   -5.37604927531731
C          -7.63266363731773   15.53783795003311   -4.37060683515920
N          -7.89253268394739   14.45380270148456   -4.63890801128332
C          -6.19863306263304   19.83596595700902   -3.01182469600575
C          -5.39096331918018   20.72455574050886   -2.28926550385781
S          -4.31905444617734   19.88163600631269   -1.17381815913108
C          -5.46561756663173   22.11359008860741   -2.49176277235739
C          -4.69427653837179   23.12334281246523   -1.98073427041143
C          -4.81970228820484   24.53721356740855   -2.29112152083528
C          -5.83547145369996   25.14624166068578   -2.98057210073428
C          -5.89123467008917   26.53203326932061   -3.24112005264210
N          -5.99383946651935   27.64760641931490   -3.49141698752469
C          -6.97562661770672   24.50054460951817   -3.50359402524737
N          -7.93394273447659   24.05026343897383   -3.94838325575374
C          -3.67374251742668   25.21880482789752   -1.69767036986486
C          -2.89915037952091   24.26324032184854   -0.97813575790604
C          -3.52580844376175   22.94277021972054   -1.10677621113455
O          -3.14293664885161   21.90144315840767   -0.59986715960761
C          -1.75868470346211   24.60792950615681   -0.31138652016967
C          -1.32641991004150   25.95258592513739   -0.33996747869422
C          -2.09105627554864   26.91461602912886   -1.06134714623231
C          -3.27157241146635   26.52728104041737   -1.73732533299206
C          -1.64716622748282   28.25201792901864   -1.08854972360470
C          -0.50306675501806   28.62330676243173   -0.43542773319350
C           0.24845299065414   27.67552540510590    0.27481917045696
C          -0.15476912485475   26.36830469266428    0.32221128558270
H           6.09340056104063   -0.17774048538221    1.93267012618176
H           1.62091013752927   -1.16249602019269   -0.04687135171553
H           2.46351462894901   -3.27702347694619   -0.88459424647645
H           4.29752491706455   -4.90009573894656   -1.14253223902397
H           6.51173736479613   -4.43910158148385   -0.16705164004451
H           6.90996977915908   -2.34905769696441    1.07450491695617
H           3.35196236992487    4.21653587408668    2.69682963744755
H           0.74061288149128    3.46608230370614   -0.09066348294839
H          -2.97986718312651    8.15109822663333   -1.63307334330551
H          -5.93215753645468   14.14144628046536   -2.74722187520522
H          -6.91577587528605   20.17555924619913   -3.73830679246398
H          -6.24241410677973   22.39513593464371   -3.19288083310606
H          -1.19197431242834   23.86352374462931    0.22796190874341
H          -3.82456126346322   27.28004337987938   -2.27599934322871
H          -2.22934374007832   28.97855308478575   -1.63608519962100
H          -0.17109248486126   29.65025783853399   -0.46296239396274
H           1.14856306276072   27.98578897521498    0.78393880842823
H           0.41977694906819   25.63385157989428    0.86735494492369
