102
 SCF done       -198.219377015610          0.000804943517
C          -0.58750995819668    0.66518146831748    0.29805970612631
C           0.13975638620110    1.39539429190205   -0.60617781613740
C           0.66580301749123    0.86204994275634   -1.80178599517771
N           1.12378725345025    0.47633995644822   -2.78073115416266
C           0.53268913230064    2.73139398072096   -0.40138984584742
N           0.88995479492091    3.81377471298358   -0.26142302629300
C          -0.79689551780943   -0.77799505802672    0.22639331030487
C          -1.11971243073551   -1.25580306762521    1.53024672644438
C          -1.32900135693834   -2.58193684445293    1.77730165470239
C          -1.23849569091320   -3.50365612075396    0.71008620513533
C          -0.94110424653448   -3.02893677557847   -0.60032125469640
C          -0.71943855380244   -1.65043617285545   -0.82512532087721
C          -0.86716806662162   -3.95775157170432   -1.65798751327048
C          -1.07151876900516   -5.29208917378078   -1.43355933191835
C          -1.36066810351432   -5.75890741823668   -0.14264398679873
C          -1.44235063671191   -4.88375275591756    0.90630038670020
C          -1.19703135924773   -0.11653517403443    2.45861920339967
O          -1.39503993172617   -0.13122713904928    3.65187414324252
C          -1.03771476072440    1.09859063059444    1.60409504653856
C          -1.40024050990326    2.30161993422977    2.12679695499037
C          -1.69783532931639    3.51653905852877    1.47106187832392
C          -2.01303296220106    3.74973133379603    0.14006554994478
C          -2.27432568614921    5.09133273443995   -0.10950730905302
C          -2.16974979639802    5.89485274670429    1.04157661849895
S          -1.76561052289912    4.99489923619516    2.42473757063059
C          -2.43846320759918    7.24161146143762    0.67707421712949
C          -2.70087697826367    7.28441452876207   -0.70497799721371
C          -2.59798421853247    5.94041088713102   -1.24567849060307
C          -2.74399533214839    5.54702794356213   -2.54385791895195
C          -3.04596149017769    6.45960052631241   -3.57615549861634
N          -3.29719717400171    7.20081049969586   -4.41414943814327
C          -2.60372737757360    4.19531996865841   -2.92310554905966
N          -2.49828106555245    3.09160661823054   -3.21627610154152
C          -2.98435764690515    8.57617608166397   -1.15567594765438
C          -2.94085259857686    9.48679098899015   -0.12414626730085
S          -2.54410232524105    8.77515804552186    1.41557090665663
C          -3.19863980231000   10.90365149685498   -0.16581871150481
N          -3.14345564243627   11.54125459733616    1.00624897734329
C          -3.39870393621618   12.83670141502635    0.99075310251350
C          -3.71062667353499   13.51320108646623   -0.17577335372328
C          -3.73187215095175   12.76222289162611   -1.36093916940792
N          -3.47355207849388   11.45301544722858   -1.34059649535525
C          -4.02937474399909   13.38350609531708   -2.63050007883011
C          -3.97769059468220   12.71100687323256   -3.79748994558757
C          -4.24954405845695   13.27691909175324   -5.07477102719419
C          -4.68665640311116   14.55435002082857   -5.38307319048863
C          -4.82749182958790   14.74428519601096   -6.75544887265508
C          -4.49040670141406   13.60032604400980   -7.50333914584021
S          -4.01402126938721   12.29692191248749   -6.51161744435400
C          -4.64818312975459   13.90060514807889   -8.87969311050135
C          -5.09455177231244   15.23570224855466   -8.99969197379467
C          -5.21386722563243   15.80872446306243   -7.66903949944991
C          -5.58941864044217   17.07630715545840   -7.33628175764101
C          -5.91087535756085   18.06701732931703   -8.29006910761902
N          -6.16078403079431   18.90172306593410   -9.03443675581130
C          -5.66383158749982   17.49794311328991   -5.99135976543992
N          -5.72598840776837   17.84081547517454   -4.89884006212894
C          -5.28986122456550   15.63189623474200  -10.31560272162035
C          -4.99254283175781   14.61806810017697  -11.21731931141830
S          -4.45302584764775   13.14824716751426  -10.38947023308691
C          -4.97809548906118   14.57480876149521  -12.62675086898596
C          -5.45796316933010   15.46223933008497  -13.54993568385059
C          -5.25466237126369   15.33078014330965  -14.98460411764502
C          -4.37285132218465   14.49178523731142  -15.61658113955527
C          -4.20786212632687   14.43167628838626  -17.01671534863839
N          -4.02700453608020   14.32600660174943  -18.14544831830321
C          -3.48083819065231   13.59981678593060  -14.98512141934713
N          -2.71042227645625   12.86667027409039  -14.55068893458253
C          -6.09411457783727   16.31951011683998  -15.64998820413559
C          -6.75459565360698   17.09207623214641  -14.65431902835833
C          -6.37446400209881   16.60888356237411  -13.31762655520751
O          -6.78217724735895   17.04475226750395  -12.26168210744722
C          -7.60296867050973   18.11308246739331  -14.97216507618266
C          -7.83573307232378   18.41435524277116  -16.33234814563587
C          -7.18517786754995   17.64140420165507  -17.33726915464709
C          -6.31195494654118   16.58983165700971  -16.97548837333652
C          -7.42751530204840   17.94834485797361  -18.69174539626257
C          -8.26966109838830   18.96970323201564  -19.03833964061458
C          -8.90877620431579   19.73038283632921  -18.04785369944291
C          -8.69619292396098   19.45879079905895  -16.72346693143277
H          -1.56306945013776   -2.92429107030161    2.77438174101156
H          -0.50669780624393   -1.31590255415084   -1.82845420583231
H          -0.64090719445879   -3.59402423180630   -2.64941966386853
H          -1.01085118691729   -5.99587606795668   -2.25008517020850
H          -1.51896214589624   -6.81505911321928    0.01657110782469
H          -1.66526955669860   -5.23704941509816    1.90249200779921
H          -1.54237728006303    2.29866906270423    3.20384776126907
H          -2.09091065799268    2.96586981835701   -0.59091920223021
H          -3.21549956825769    8.85829766964635   -2.16590665955860
H          -3.35087460925784   13.33853835674724    1.94858750757063
H          -3.92254341703745   14.56961415937990   -0.17921257047788
H          -4.28600846793130   14.43215030281593   -2.59706681145854
H          -3.69827601797443   11.66665991756921   -3.77055065414514
H          -4.89412522724361   15.30140737712060   -4.64002031055945
H          -5.63857220236364   16.59976899894135  -10.62634299657561
H          -4.50845180549152   13.67992557836746  -13.01878551246477
H          -8.08711735171653   18.68406541166879  -14.19391336591762
H          -5.84023086472980   16.02160804591512  -17.76112523623924
H          -6.93207375146969   17.36119821082846  -19.45103087922639
H          -8.44776723467722   19.19753937071162  -20.07858379102637
H          -9.57024483483987   20.53243662447124  -18.33944536857794
H          -9.18485936573251   20.04077073005969  -15.95584423891482
