104
 SCF done       -202.520314730078          0.000508983489
C          -2.72983069454914    3.40448715730651    5.38281754409967
C          -3.90871688807544    3.98162378409315    4.98711849050349
C          -4.86490185664972    4.50160619972369    5.88178626177074
N          -5.66502154381380    4.95544247150572    6.56849342191978
C          -4.32890411519652    4.03686900245916    3.64272877012370
N          -4.71474550996096    4.06558858292805    2.56163641725733
C          -2.37995961390870    3.05888467319316    6.75525788591361
C          -1.40063372557452    2.02268163383613    6.72323004330346
C          -0.91371323187122    1.46361965720949    7.86936752539803
C          -1.38170933039571    1.93256315846800    9.11793437449082
C          -2.34622151073765    2.98109771961931    9.15543032316505
C          -2.84066778998887    3.53527872896251    7.95239624415150
C          -2.79681921477319    3.44525742909021   10.40778541118507
C          -2.32208300884440    2.89899025634189   11.56901157100716
C          -1.37452480139625    1.86520948225501   11.53143205084630
C          -0.91490153346419    1.39207967112147   10.33231449156670
C          -1.04845854756996    1.72619039046604    5.32248230312587
O          -0.29999671760314    0.87540492950471    4.90127065023461
C          -1.76483987788003    2.75868456828848    4.51749832654595
C          -1.37683038799892    3.00115444945224    3.23739406081233
C          -1.59102043793374    4.15336428950663    2.44375774385197
C          -1.48736021782511    4.22422039611365    1.06343593953357
C          -1.72796218420175    5.50671808066318    0.58034097379700
C          -1.97399265816824    6.43723097838769    1.60908517648682
S          -1.92761131835313    5.73124333051025    3.15528382494840
C          -2.21392082904209    7.70457436083028    1.02680113070683
C          -2.13279549394378    7.57878174738108   -0.37065033661757
C          -1.81597976111839    6.19643172050394   -0.69720488902743
C          -1.63926986562900    5.66442803807562   -1.93994530572925
C          -1.75763637138124    6.43802260821816   -3.11469851727690
N          -1.84843575146537    7.05714774233643   -4.07520928796250
C          -1.31396767133096    4.30494830803667   -2.13521769876101
N          -1.04034256699178    3.20431389335479   -2.30206592056344
C          -2.38319670623684    8.77549732486089   -1.03954639643583
C          -2.65186004082032    9.81685735619691   -0.17119205566682
S          -2.58602637252578    9.29445877445613    1.51229193573765
C          -2.97153607280347   11.18353957956205   -0.46814534134335
C          -3.05855962617343   12.12371914627729    0.55016133082050
C          -3.39052301951009   13.44600043603314    0.31265385044531
C          -3.66699980118800   13.92686501991874   -0.96044007823493
C          -3.57514480186272   12.99801580062221   -2.04409858551754
N          -3.80350257771116   13.41226759764584   -3.30314626553717
C          -3.72074744833439   12.54969431342536   -4.27959801653338
C          -3.40254925450902   11.20250383558030   -4.03629499783671
N          -3.16287581675752   10.77147104438506   -2.82754916130201
C          -3.23041958813876   11.63645973208189   -1.79983801392734
C          -4.03335417307566   15.30018186099229   -1.15591517561268
C          -4.49634528643083   15.92336841407998   -2.29935584002024
C          -4.77387152637602   17.27359171755739   -2.09269044498597
C          -4.51280886903399   17.69107443179208   -0.77595357653705
S          -3.93474255607562   16.42072446580419    0.20247767996052
C          -4.82905231408563   19.06550148121401   -0.66395571211421
C          -5.30365099356403   19.52066365771358   -1.91451130512899
C          -5.26525460655426   18.41129135789478   -2.85561053200590
C          -5.59424604051602   18.42904364304906   -4.17825183192109
C          -6.01519092609461   19.59733463484853   -4.85101857908002
N          -6.33779081485072   20.53206850977771   -5.43030435710584
C          -5.51161250530368   17.27361592348677   -4.98573742648306
N          -5.45037797844649   16.34135799793637   -5.65043410012506
C          -5.67722434900985   20.85806690903426   -1.90147050340252
C          -5.48829484026689   21.44239004871934   -0.65530810725633
S          -4.81185339525388   20.29321868128224    0.50891904666825
C          -5.67999628770316   22.75634486365730   -0.18218160236571
C          -6.38341799284519   23.79641776641672   -0.72273937401213
C          -6.41617251823373   25.13483461307190   -0.15741142881778
C          -5.54214418991702   25.65558590431428    0.76221036411887
C          -5.61230975826493   26.97468277743531    1.25728355488669
N          -5.61619507907737   28.03161591107212    1.70555137620556
C          -4.43489183750550   24.97946735280358    1.31581140706096
N          -3.50501155860973   24.50507217632045    1.79546379614707
C          -7.49565909987799   25.86821136057495   -0.80536133249895
C          -8.06538825780485   25.03625820805922   -1.80992518737681
C          -7.37728503388778   23.73445625842260   -1.82554963351785
O          -7.62797136842382   22.80147082089282   -2.55850336296606
C          -9.10150286631276   25.45493330439706   -2.59368828057925
C          -9.62850590269872   26.75166523818866   -2.40160297664658
C          -9.06885252862046   27.58878676712594   -1.39340794544057
C          -7.99410667219531   27.12739249852374   -0.59909311890078
C          -9.60677858677211   28.87828545230092   -1.20602068995581
C         -10.64693293419934   29.32163316454827   -1.97671107004504
C         -11.19675726936738   28.49681448755097   -2.96936434795927
C         -10.69787015656817   27.23951046300926   -3.17789544872532
H          -0.17997727758003    0.67254236014738    7.82573797768874
H          -3.56461034970006    4.33364415373654    8.00614777711424
H          -3.52932471047172    4.23871762863056   10.43119493890464
H          -2.67488524644458    3.26018499654805   12.52336228576016
H          -1.01042520205521    1.44572859989722   12.45727889766152
H          -0.18540104278901    0.59623163627849   10.29752081385536
H          -0.75285414451692    2.23459304628117    2.78703486936877
H          -1.28102663066928    3.36155966041626    0.45592198508902
H          -2.38545316534833    8.91197368706090   -2.10474914602898
H          -2.86276965848004   11.81549990742218    1.56709645469083
H          -3.44495571414746   14.12301855575419    1.15301811298979
H          -3.91072157536828   12.92752323308368   -5.27451927951133
H          -3.33876745261712   10.47188863307069   -4.83058202398426
H          -4.61588842515725   15.39149058730675   -3.22455321869012
H          -6.07680359159819   21.39756164917014   -2.74026070187458
H          -5.20716629231046   22.93932903651460    0.77626910753761
H          -9.51302491462515   24.80395186752833   -3.35066153676906
H          -7.59716828765269   27.78259747584772    0.15989822536302
H          -9.17905017347588   29.51009912022557   -0.44142189701413
H         -11.05184492741717   30.31105538254496   -1.82553702824325
H         -12.01772813119912   28.86250293298222   -3.56778958200641
H         -11.11691585840624   26.59984332499840   -3.94076817086544
