94
 SCF done       -182.781270825571          0.000841659101
C          -6.92949874046474    4.05274583178496    5.13040634873782
C          -7.31204905606133    4.19496554479898    3.82164312711851
C          -8.61986727513938    4.53259056718839    3.42084815703934
N          -9.66491646851498    4.82453746921656    3.04615397254402
C          -6.45313432449540    3.92952834496726    2.73604647970537
N          -5.78540710482443    3.68592548077140    1.83425667249178
C          -7.83216402431483    4.02035817638660    6.27500149433404
C          -7.18606315385500    3.32262949707659    7.33789804223924
C          -7.81164618577817    3.09772514031933    8.53005512171228
C          -9.12628293413137    3.58068452722401    8.72037460289179
C          -9.76913939822258    4.29518870009160    7.66801953793886
C          -9.10137087827401    4.50438863047756    6.43937030918792
C         -11.07623732037725    4.78007590156043    7.87590424262174
C         -11.72112968104707    4.56757332712901    9.06389244837261
C         -11.08877445415983    3.86191831751103   10.09836638109746
C          -9.81951633163385    3.37853729763868    9.93003458507705
C          -5.82211051686509    2.95049022675216    6.92022246849150
O          -5.00031520506955    2.30623793738633    7.52915710077937
C          -5.63206307127753    3.60891950178949    5.59399877719298
C          -4.37220454039862    3.78824992769997    5.11486184421524
C          -3.89341088450999    4.71394686000990    4.15895017140648
C          -2.65437633184573    4.66426563629560    3.53726295086945
C          -2.44150838659063    5.74842564722046    2.69270765812611
C          -3.51868157892091    6.65804607604324    2.69411846106780
S          -4.78427327916358    6.17116087496629    3.72036821889230
C          -3.21322841599024    7.72362464827052    1.81687330083441
C          -1.94262826570502    7.49564628346789    1.25659562589860
C          -1.41748206260036    6.24530949327998    1.78909479271635
C          -0.21917952415371    5.66467639474654    1.49711782886362
C           0.69625176294774    6.24666774522072    0.59428542470968
N           1.44110601321553    6.72029403606862   -0.13718879985187
C           0.18938326053035    4.44678089967340    2.08216779135805
N           0.52993843981349    3.46174237364738    2.55925560142326
C          -1.55721542028426    8.49640549857583    0.36918782723909
C          -2.52487081966207    9.48234047115344    0.23741364035500
S          -3.93228744388692    9.16053788202013    1.24267387228265
C          -2.45407661724864   10.62507461946609   -0.59521997579317
C          -3.46293659071481   11.51898384504193   -0.74703759967272
C          -3.42386514853993   12.66455843770570   -1.57914811115599
C          -2.37824365773142   13.16729167547708   -2.34113607136948
C          -2.74081846984802   14.31841209708523   -3.03322205501408
C          -4.07678468308265   14.70011290301687   -2.80359601618879
S          -4.87559558169725   13.64361037087952   -1.72742947966131
C          -4.35040906850148   15.86593348708917   -3.55412663957697
C          -3.18198452194021   16.23102025645203   -4.26295059001244
C          -2.13228320574336   15.27610785723880   -3.94798692154832
C          -0.84311185193721   15.27234494182973   -4.39026546649020
C          -0.31232243758808   16.25389752402243   -5.25628776800414
N           0.16001848774935   17.03705391164103   -5.94670547691741
C           0.07224601646332   14.27420490201664   -3.99147955360740
N           0.81359069221183   13.46298310601476   -3.66427523330793
C          -3.35081683769390   17.36505164896997   -5.04582333304211
C          -4.63772399340629   17.88063329934226   -4.95183400577141
S          -5.64432686546848   16.92453092248339   -3.84935061419391
C          -5.27365021715672   19.00030828477420   -5.52474614019565
C          -4.85379113149092   19.90558093356571   -6.45974051453269
C          -5.65975546944802   21.03444737771524   -6.90215466892121
C          -6.80569366448835   21.51200422388041   -6.31903159180614
C          -7.52760839239083   22.62660921266679   -6.79680806273672
N          -8.16810079166891   23.51902893028812   -7.13071726536333
C          -7.41952693752101   21.01057497832398   -5.15202543024391
N          -7.97687495597781   20.67906408192894   -4.20320094816714
C          -4.99476085067729   21.63662024565629   -8.05104658442066
C          -3.76041053266012   20.96106972538234   -8.26193939912481
C          -3.61095292144329   19.88171554403812   -7.27305592664274
O          -2.66497306221190   19.12764383653266   -7.18259179859617
C          -2.90049077272124   21.31658194700067   -9.26069875327471
C          -3.24830282492604   22.38285760876465  -10.11948428875607
C          -4.48977141467269   23.05518580948604   -9.92633324771772
C          -5.35610847451928   22.66713214771761   -8.87863030664816
C          -4.83215788081253   24.11106789129459  -10.79547623675657
C          -3.98867775512301   24.48835415087240  -11.80474331241159
C          -2.76489272733112   23.82824283793241  -11.99134989769163
C          -2.40250720629151   22.79781636505511  -11.16670010749315
H          -7.31055269549577    2.55823568568346    9.31994261933436
H          -9.60545410264009    5.05498599347229    5.66016269049083
H         -11.56025771074273    5.31945887005713    7.07499784512518
H         -12.72291592856783    4.94167735978903    9.21275585469552
H         -11.61209846409809    3.70348242778663   11.02935666802875
H          -9.32774052142294    2.83457088203136   10.72313717763304
H          -3.60576671825190    3.18941330015807    5.59875850364769
H          -1.96691662967682    3.85142750542822    3.68748583448091
H          -0.62722892384179    8.52153709077026   -0.16923002456241
H          -1.52741036163929   10.75006867122173   -1.13700369709169
H          -4.38820981255673   11.35720303697533   -0.20799364223572
H          -1.40642777814506   12.71163115095741   -2.37807065403505
H          -2.59799623433706   17.81169391399940   -5.67118518720784
H          -6.28144920502292   19.14087474986762   -5.15090698084021
H          -1.96744391710242   20.78914497406110   -9.39254467342390
H          -6.28884713516793   23.19539507149846   -8.76242591431574
H          -5.77450157971560   24.61761565849609  -10.64658665053107
H          -4.25988816556022   25.29849653363801  -12.46495117997396
H          -2.11104001485137   24.13998775125389  -12.79204746876274
H          -1.46187818106415   22.28529626522423  -11.30549780747180
