100
 SCF done       -209.261859272556          0.000694003079
C          -3.43914525059520    2.50995747549311    4.55780871496910
C          -4.54928499403483    3.06085651402231    3.97352492973579
C          -5.71125009073584    3.42032468542690    4.68606127559944
N          -6.67231745602706    3.74237767463033    5.22421258036952
C          -4.68004832890517    3.24693934793754    2.58222021307802
N          -4.82717206977632    3.37988929998665    1.45138985040515
C          -3.35400496937180    2.04423766180992    5.93613634195740
C          -2.31388623063230    1.07189984097259    6.02124536358624
C          -2.03270665403950    0.42652318010404    7.19110425714357
C          -2.78284830764192    0.73778194128403    8.34769257117225
C          -3.81108619567210    1.72207844420689    8.27190633745078
C          -4.08609290280339    2.36954918010460    7.04576536933611
C          -4.54585658798654    2.02825568028651    9.43528736151013
C          -4.28253615283782    1.39117804141117   10.61723875958726
C          -3.27181815180840    0.42097022123395   10.69076155889782
C          -2.53834894895968    0.10106776714898    9.58049560295640
C          -1.66122644332632    0.93717594331086    4.70697789101820
O          -0.78301746356315    0.17526035537708    4.37819310884360
C          -2.27011817462935    2.00922197760068    3.86200776727255
C          -1.64579618060240    2.40106065748880    2.72244958455501
C          -1.78187926811003    3.61654715572012    2.00353077396450
C          -1.43296678718476    3.82555061155039    0.67993152217495
C          -1.65182124194834    5.14165170491841    0.27914391462495
C          -2.12912160073862    5.95339589543665    1.32323877924568
S          -2.33202678950847    5.09863203518318    2.77921841105199
C          -2.31510831393082    7.26900773057677    0.82765175570584
C          -1.96665105711953    7.28738344334131   -0.53369418153932
C          -1.53021820455168    5.95455962722492   -0.92241389575243
C          -1.09249027004348    5.54988074457518   -2.14791675633308
C          -1.00069672812380    6.43055823144055   -3.24761482217116
N          -0.91259579810352    7.14283233130622   -4.14116470648834
C          -0.67939386843389    4.22291654820150   -2.39665530680254
N          -0.33244543195320    3.15034113661979   -2.60425337164165
C          -2.14191015040641    8.54219355438446   -1.11755526007276
C          -2.60888700163353    9.47527708661266   -0.20928271700284
S          -2.82686438219626    8.78662064184519    1.39358377848081
C          -2.94570983580544   10.85635618988812   -0.44705500417352
C          -3.20464335320214   11.37102221548914   -1.72773553880716
F          -3.13674344881087   10.57333208400061   -2.79991423443627
C          -3.56940981804466   12.68850845635335   -1.93598562441113
F          -3.81586398600683   13.07294448689491   -3.19722845148220
C          -3.71826229735667   13.61474111977275   -0.89136212674437
C          -3.42492131157658   13.10802054008526    0.38563463968463
C          -3.06332248155416   11.79098040024416    0.59380180562890
F          -2.80196217992997   11.41281556354142    1.85440032222437
F          -3.46869752175213   13.90774149480471    1.45798162779915
C          -4.16132468676516   14.96900565799783   -1.10706349956730
C          -4.68006707042465   15.83882347087644   -0.16430829333801
C          -5.03277131197759   17.06598127187137   -0.72254251449074
C          -4.77082630295550   17.13321175236405   -2.10232622346027
S          -4.11152679520898   15.68674763569615   -2.71061295476920
C          -5.17079676963429   18.40956627627914   -2.57510287997495
C          -5.68603815753755   19.14789495633658   -1.48760778422884
C          -5.62272558050366   18.32325133873546   -0.29054430726224
C          -6.04541375443599   18.64523046794842    0.96408121023622
C          -6.63606060326697   19.88651528372394    1.29052958315347
N          -7.13057955670522   20.87469520144122    1.59393395201322
C          -5.94521896927601   17.74200134160850    2.04535832235272
N          -5.87549251736652   17.01755555495121    2.93097925923773
C          -6.11307020304388   20.42024964522042   -1.84294594455975
C          -5.93315396107490   20.67377531037798   -3.19642830975571
S          -5.22098553557498   19.28349751574155   -4.03057271725839
C          -6.24589475225786   21.78133413379342   -4.01393154114206
C          -6.73041745268167   23.02195928881255   -3.70743353213400
C          -7.06869773869052   24.02749750350321   -4.70688852958061
C          -7.15453446820879   23.84950393805822   -6.06376831001208
C          -7.50486455621331   24.87197717449531   -6.97193248960807
N          -7.77335995848984   25.65444661149149   -7.76772386628897
C          -6.94684046495304   22.64262210893941   -6.76449221615712
N          -6.81256429218181   21.70343755492210   -7.41265476074262
C          -7.38046890102928   25.26861022125411   -4.00824215274575
C          -7.30483812862172   25.02838859273962   -2.60816952354531
C          -6.91413950751164   23.63248474079884   -2.36384693038127
O          -6.74973632580954   23.12439693713501   -1.27495697627780
C          -7.56865062998636   26.00119330775469   -1.68751197110454
C          -7.92477157815987   27.29190646138062   -2.13610619683030
C          -7.98978708518342   27.54759589984705   -3.53661260710175
C          -7.71293327312757   26.51749503466373   -4.46469691889114
C          -8.33878733524552   28.84182816883223   -3.97367103546642
C          -8.61453238906511   29.83429388826398   -3.07282882838639
C          -8.55380777932312   29.57979235299235   -1.69441950116505
C          -8.21582698764738   28.33546246370078   -1.23583381246064
H          -1.24787816307298   -0.31386841022136    7.23475786689505
H          -4.86281656158859    3.11791615238744    7.01532694399856
H          -5.32538312599273    2.77319103227389    9.37248342182962
H          -4.85244733345515    1.63090246509703   11.50229362980244
H          -3.07714107111810   -0.07150581266333   11.63161932742632
H          -1.75904262818466   -0.64507739287607    9.63161905578637
H          -0.88413537451325    1.72193302402595    2.35023034858390
H          -1.07216235423984    3.03570970845634    0.04623560500031
H          -1.92906526892326    8.76324679019966   -2.14661071187043
H          -4.81447985935289   15.59102885202720    0.87141629550561
H          -6.52901168059813   21.14875012427927   -1.17006861754018
H          -6.06048578216429   21.58891737631527   -5.06435192000345
H          -7.50794278110766   25.78460285560204   -0.63134082924720
H          -7.76919244741271   26.74762451629881   -5.51649988174758
H          -8.38636618664563   29.03318710435340   -5.03565088137143
H          -8.88193058550702   30.82181954867430   -3.41776110381652
H          -8.77587125274765   30.37447799038534   -0.99805054268545
H          -8.16675748084055   28.13251809112838   -0.17607797708291
