105
 SCF done       -209.433344383161          0.000621810153
C           2.84053653034143    2.88633879686923    2.96046342773512
C           3.05498797865551    1.66841117984240    3.55256955316309
C           3.91502939228850    1.46554290616371    4.65212869613294
N           4.60457826384292    1.23459564294853    5.54062268266697
C           2.43101975323785    0.45872627899373    3.18038158949725
N           1.95474192629314   -0.56302024208796    2.96184576953062
C           3.40370110921892    4.15647996097395    3.39989919666345
C           2.83559235469602    5.20065977048567    2.61582495500420
C           3.16877959490021    6.50984407692239    2.81054389915118
C           4.10232972941991    6.84193871556666    3.81822952558756
C           4.68343661192477    5.80165502270614    4.59941254058859
C           4.32001863319605    4.45441465255462    4.37401745672138
C           5.62163939093661    6.14253080266613    5.59502917170408
C           5.96852672144539    7.44811139577957    5.81228266431311
C           5.39398269622686    8.47200974746148    5.04432668090830
C           4.48062673467719    8.17548996538524    4.06911843758008
C           1.91191633286432    4.62681087960295    1.61951103584278
O           1.33242502297843    5.22640987633327    0.74310276272652
C           1.94265942918197    3.15506411459934    1.85221404933644
C           1.37421682604271    2.22109028112069    1.03967077993359
C           0.36493507672538    2.42059700353925    0.06609365295156
C          -0.72038663265676    3.32562935475628    0.01710342356150
C          -1.49239901478845    2.96695259761878   -1.11310812702190
C          -0.78335108432405    1.87994724051096   -1.71432411117847
N           0.28214043933923    1.55267171602528   -0.98426883375714
O          -1.08413515225272    1.28792107278959   -2.84701502298927
C          -0.24538178905608    0.20600859206211   -3.22168272196979
C          -2.59535891745584    3.85682836049579   -1.13901803336076
N          -2.50357299915659    4.73752632341932   -0.11121668274850
C          -1.41315236648149    4.43892213449514    0.59694233517272
O          -1.06583130339937    5.08087685823773    1.67967777042849
C          -1.83590164121262    6.23199625725329    1.99288383014843
C          -3.70536151486075    3.86821850565240   -2.03355664510840
C          -4.40241188366132    5.05557416389902   -2.35787413556981
C          -5.55702362885047    5.04934352210236   -3.21202686780203
N          -6.24154984967115    6.19608517982887   -3.40974644450789
C          -5.79743098887499    7.28847964377244   -2.88776275326905
C          -4.58949393767122    7.31200850722003   -2.13533983966157
N          -3.93721728607246    6.22915630888760   -1.87984694726791
F          -4.09428446581691    8.46115388451575   -1.67787322495533
F          -6.50331875860838    8.40219117223598   -3.07800244514866
C          -6.03839848505809    3.85879502118537   -3.80371145849789
C          -5.30930498336319    2.68492306767621   -3.52947441600314
C          -4.17656346919659    2.68290648718893   -2.63195387843997
N          -3.69389686643496    1.45316872738140   -2.45395976350895
S          -4.51388293704363    0.43523483049943   -3.37746366869439
N          -5.54433052897250    1.47132329724290   -4.02822866547743
C          -7.22567512722852    3.81831862307769   -4.59258337185613
C          -8.15431429381118    2.75190828913895   -4.70180753232498
C          -9.16115369298232    3.19449151902457   -5.59162420602015
C          -8.75877268304871    4.51662777141127   -5.97340300916253
N          -7.62477967257382    4.86165233228234   -5.35977835590256
O          -9.38157249216237    5.29454922815512   -6.81614569256303
C          -8.85291563243934    6.60491061780486   -6.95924683044446
C         -10.09797683270150    2.14179257975034   -5.69452268095084
N          -9.69396582768729    1.09378893343492   -4.91839313422270
C          -8.57210783329078    1.44710192471987   -4.29237841584009
O          -7.98152229471004    0.68615477903490   -3.39818252722607
C          -8.56382602870548   -0.59152456160982   -3.19113694231009
C         -11.25929363394060    1.99448382820039   -6.49376349854899
C         -12.11822372657045    2.97262236150154   -6.89332033098684
C         -13.22027995731235    2.80843756825143   -7.82426839429526
C         -13.40452668475869    1.75517811302115   -8.68194790515408
C         -14.47958527314788    1.65577715939687   -9.58986543088438
N         -15.33425635184998    1.51321637454377  -10.34309886352042
C         -12.54035240602875    0.64663284200994   -8.80756188804050
N         -11.88248543640709   -0.27623980615374   -8.99221081699116
C         -14.05038039894433    4.00379781816831   -7.75271430050413
C         -13.44899542464121    4.91957373977265   -6.84319468677040
C         -12.22523934258327    4.32488974093935   -6.27470952411806
O         -11.52038845958922    4.80856054330034   -5.41883270444440
C         -14.00230869588405    6.13855483494221   -6.57681199613951
C         -15.20601829362066    6.50507957151455   -7.21987325944245
C         -15.82002449628130    5.58956892225396   -8.12272493186432
C         -15.22344692504140    4.33395383224333   -8.37905640451657
C         -17.02739865233674    5.96014092791859   -8.74930151922685
C         -17.60089044280570    7.17707227898846   -8.49964686614759
C         -16.99393901809266    8.07901086085548   -7.61289266333748
C         -15.82187945406814    7.75047795498688   -6.98727377863637
H           2.72491111130541    7.28407254652639    2.20234577652387
H           4.78296077794507    3.68914191605780    4.97655409445751
H           6.06001569497687    5.35038695765335    6.18417452742429
H           6.68783979557121    7.69924209469069    6.57731315126906
H           5.67945338245741    9.49687333820439    5.22886708867480
H           4.03619756730956    8.95994334942969    3.47409408377835
H           1.71811945992151    1.19480417251593    1.09504498949079
H          -0.57774712145127   -0.11010380270992   -4.20809960286336
H          -0.34031072493970   -0.61130337170106   -2.50455912980885
H           0.79784450988439    0.52575208237509   -3.24763620366855
H          -1.40973019995858    6.64457855655566    2.90482028343732
H          -2.88188402312616    5.95731066378719    2.14083244072664
H          -1.77906936403012    6.95408416098956    1.17699001150560
H          -9.51409721128227    7.12636672903176   -7.64800299176953
H          -7.83680889751448    6.55970099754550   -7.35552352365184
H          -8.82546883094277    7.10604332033887   -5.99069741536333
H          -8.01974262231012   -1.04465285591277   -2.36514478854230
H          -8.46915661787667   -1.20006743847944   -4.09227728976463
H          -9.62332544636361   -0.49098931510685   -2.94942328612150
H         -11.46967681536701    0.96555308697050   -6.76159999097210
H         -13.52712519651280    6.81547862725240   -5.88232661346655
H         -15.71629146078407    3.65976236151742   -9.06143380057540
H         -17.48995014736965    5.26262056138945   -9.43210276291467
H         -18.52586470150355    7.45158177505817   -8.98420131261159
H         -17.46030963636565    9.03501530281289   -7.42733419601054
H         -15.35089785988645    8.44055902534328   -6.30253227837455
