97
 SCF done       -193.210103603978          0.000769948647
C           2.08578649174146    3.33318980883364   -3.66597943570313
C           2.60867428767355    4.57966895895237   -3.44205838991940
C           3.27414431459824    5.33826668048062   -4.42628880782261
N           3.80583892946441    6.00173336659050   -5.19733273611578
C           2.61312590906862    5.20288634811803   -2.17740067412091
N           2.66631502225484    5.71661895432970   -1.15215964447259
C           2.30237706324079    2.52972005088902   -4.86245316570755
C           2.09749525163317    1.15790846674212   -4.52941792788452
C           2.27891519286362    0.16411353408355   -5.44793835986459
C           2.67017916820114    0.50357687920476   -6.76275595778405
C           2.85940133778276    1.87428014365811   -7.10526817207528
C           2.66979034611571    2.88258619876318   -6.13288327525584
C           3.24465093311284    2.19871164747417   -8.42190574183806
C           3.43862512820899    1.21797168771645   -9.35611255250056
C           3.25357333020576   -0.13102653602158   -9.01800747296545
C           2.87771378609712   -0.48059632141432   -7.74931942215239
C           1.67886878591295    1.05335561802477   -3.12073375211946
O           1.46930656724777    0.05684018588800   -2.47051392379872
C           1.49351860002741    2.46551064473830   -2.66668198419012
C           0.77695376184228    2.71917332958468   -1.54290488193170
C           0.14139712694018    3.92301286625040   -1.14090777475319
C          -0.21573680613025    4.26234564730010    0.15279000908367
C          -0.84998859441624    5.50131843288211    0.21530406318354
C          -1.02023814869649    6.08861185212181   -1.05029445980092
S          -0.38038678469727    5.13587252751439   -2.30554571880965
C          -1.67375586992531    7.33821508080206   -0.89050225211685
C          -1.90240227201057    7.54686972973203    0.48367334938157
C          -1.40005789837119    6.39823016234906    1.22149529061149
C          -1.43674258676075    6.19882275728752    2.56922697846474
C          -1.99445456077185    7.14329179337229    3.45829040659773
N          -2.44772632297333    7.89991335121441    4.19017603428168
C          -0.93006589889516    5.02544299098293    3.16894418998978
N          -0.52998322565058    4.07146670282225    3.66257869804765
C          -2.52487618757715    8.76873408114142    0.74196165976429
C          -2.76468650239747    9.46263999894050   -0.42521539075158
S          -2.22872083688625    8.62479161436119   -1.85873263513532
C          -3.37289807042818   10.75013836818685   -0.59018775781382
N          -3.53747698999059   11.17727011796868   -1.83945740790467
C          -4.08873653043316   12.38066834067656   -1.97037231372708
N          -4.45910322278050   13.15454029607077   -0.94525182626771
C          -4.25850036309956   12.62622099186462    0.24616204788269
N          -3.73297579899195   11.44296264849553    0.49502849370355
C          -4.29486947716832   12.85169245901383   -3.30905146217675
C          -4.80191755511743   14.06483217782857   -3.72368455450660
C          -4.85833481480376   14.13912163230435   -5.11627557617962
C          -4.39312176015553   12.96324772197812   -5.73741939162337
S          -3.87891046207192   11.78148465670626   -4.62202973932242
C          -4.50578789682815   13.12235748829982   -7.14243368476400
C          -5.03216008428557   14.40296488735364   -7.41076469087214
C          -5.27949560826053   15.07839509596268   -6.14438972632019
C          -5.81247811364304   16.31854647012853   -5.95770687577024
C          -6.23783357457310   17.14351786173263   -7.02265304266592
N          -6.61256619852641   17.82853785889651   -7.86139951022404
C          -6.00079974426778   16.86803488239755   -4.67030330838365
N          -6.15731043042576   17.32571092275264   -3.63121358380874
C          -5.17099552126091   14.66254803501616   -8.76924438197151
C          -4.76362090983340   13.58827563602336   -9.54901289716092
S          -4.20867630485539   12.23337666694976   -8.55788585594945
C          -4.77791836112783   13.36426116209888  -10.94335902726952
C          -4.95799157330572   14.23370203145445  -11.98040515310725
C          -5.04823877400906   13.82634416847782  -13.37450563720566
C          -5.28407993825192   12.55936527835352  -13.84194954344825
C          -5.38686533580978   12.23048007232430  -15.21042551493181
N          -5.47372522377867   11.89194476049500  -16.30389477754011
C          -5.49802999950736   11.41531324495693  -13.04452419702220
N          -5.70158057720440   10.44386286518412  -12.46618086082121
C          -4.93775693501955   15.02234160601282  -14.19849772280592
C          -4.86827577681484   16.15615000716615  -13.34059848303772
C          -4.91391185703330   15.72024645096122  -11.93572909190070
O          -4.86989109663029   16.43943333004411  -10.96108922111525
C          -4.76942315366612   17.42743577000741  -13.82841087034037
C          -4.73223521953254   17.62629276627132  -15.22649135942940
C          -4.79365029192404   16.49632457512558  -16.09287232052082
C          -4.89695494094272   15.19209926145029  -15.55750157258714
C          -4.75094239750950   16.70609185808738  -17.48632307610976
C          -4.65362414819471   17.97021196578963  -18.00107423528230
C          -4.59379417393747   19.08184321552692  -17.14725118859039
C          -4.63278755435732   18.91371926573357  -15.78952157305374
H           2.12827722152828   -0.86972573637686   -5.17494725636979
H           2.80955229451877    3.91359744217992   -6.41878409237392
H           3.38930262094341    3.23842073700491   -8.67617760710641
H           3.73663876104192    1.47633027943102  -10.36111820591694
H           3.41029280200683   -0.89180267235500   -9.76785350577869
H           2.73399474836204   -1.51760586023667   -7.48360697764781
H           0.60998411406294    1.86432074330337   -0.89370582611631
H           0.01697180327653    3.64085590521368    0.99849277877959
H          -2.79688066586161    9.15609255621220    1.70671803908079
H          -4.55358828010173   13.22083617617654    1.10142359384559
H          -5.10332913439291   14.82818162266199   -3.03004692324083
H          -5.53927644551758   15.57948794573298   -9.19171036824074
H          -4.60053145658799   12.32786832690573  -11.20785466940620
H          -4.72181289363879   18.26985057162062  -13.15450100763005
H          -4.93476834632806   14.35778804791440  -16.23969959291206
H          -4.79891294580262   15.84724473089159  -18.13960647935427
H          -4.62248816927630   18.12056252501722  -19.06976155542076
H          -4.51650200426729   20.07198884986281  -17.57075758823433
H          -4.58728610177224   19.76561970022524  -15.12708645542694
