111
 SCF done       -208.733130339953          0.000576779066
C          -1.42512820974494   -0.34466787149871   -1.69266698884994
C          -0.23030353139718   -0.01537338942106   -2.28609265243730
C           0.86790422251142   -0.89121413027219   -2.38080291892619
N           1.80426715198317   -1.55151524265401   -2.46175288102311
C           0.01087042496701    1.20992450724644   -2.93567858050917
N           0.25039504027588    2.18187788622206   -3.49877990122047
C          -1.79716345217889   -1.68652794024867   -1.24951886921792
C          -3.21644528682082   -1.74664213810889   -1.13640190627576
C          -3.85956988953886   -2.89037738811955   -0.76352437093892
C          -3.09780551385830   -4.04441061355946   -0.46894494854328
C          -1.67804996514940   -3.98766009914140   -0.56782646547593
C          -1.03941165499681   -2.78972098810048   -0.96612087873338
C          -0.93009402849450   -5.14298444471477   -0.26458244469181
C          -1.55248522307909   -6.30041315010814    0.11718277831334
C          -2.95051500669344   -6.35517901784882    0.21471551202012
C          -3.70662547132151   -5.25126331609696   -0.07318011603863
C          -3.78313973540533   -0.42239497811082   -1.45312501952216
O          -4.95059961959999   -0.10622313194628   -1.51294612328718
C          -2.60918890204008    0.47477914660922   -1.62735273112487
C          -2.81631023830607    1.82684717005228   -1.60479112719440
C          -1.91843288955510    2.87195564439287   -1.32898376014791
C          -0.65786716708863    2.84377209822103   -0.73389539365219
C          -0.09280229201843    4.09277516545630   -0.54713196145299
C          -0.94306560302119    5.11439044721151   -1.01648940912673
S          -2.41950654708998    4.52136682813494   -1.64546359366796
C          -0.46041443931634    6.43015551022245   -0.86859417819147
C           0.81716082045301    6.54252426623173   -0.28466501369395
Si          1.50858980519668    4.83927633826377    0.08226306254355
C           1.80320958353535    4.54498942552657    1.90831104100887
C           2.96590562987830    4.36976679741581   -0.99210951067166
C           1.17643549966072    7.87266795842971   -0.13448070837336
C           0.21368163785894    8.77361217501831   -0.58428645382947
S          -1.17621198630361    7.94826525498636   -1.23949293055400
C           0.26319113941234   10.18940937087794   -0.50203692015117
C          -0.77584590422276   11.00478596994890   -1.00974084445499
C          -0.80094731768105   12.43586905938251   -0.87092824524640
N          -1.84482197368516   13.11745290999797   -1.38638600066003
C          -2.79470272855390   12.48184280921025   -1.99102817108411
C          -2.77204492153348   11.07311087385449   -2.12698818542368
N          -1.78927375160705   10.38448326205367   -1.64511343392273
F          -3.74927939543008   10.41914817505463   -2.74959415116287
F          -3.80025962496097   13.20711776478250   -2.48432744233658
C           0.22777901903800   13.13491921721716   -0.19304037736657
C           1.28997606509583   12.32402654043546    0.27348849517824
C           1.32237935515940   10.88958472154768    0.12359440224071
N           2.42952227038683   10.36943448530258    0.65520259184633
S           3.33158449113956   11.54688523509387    1.27138259184346
N           2.37092032901001   12.77819961673306    0.90501084104573
C           0.22483630539329   14.53312918903367    0.06130767979412
C          -0.70238557810393   15.49387155581862   -0.33530319274234
C          -0.43244342448778   16.76776626654284    0.13894960728823
C           0.73700478490062   16.78106394927493    0.92449973671098
S           1.48793787554418   15.24095667100689    1.04309352514946
C           1.08027885206247   18.02249658700870    1.49618516495752
C           0.19839195343840   19.08788218630029    1.19335466079348
Si         -1.18229429363654   18.48491130304611    0.07543256665587
C          -1.13480769439722   19.25091781222333   -1.63194433776708
C          -2.87338553595123   18.57848007845349    0.87234644776545
C           0.60586537754472   20.24195139346401    1.82644452466649
C           1.76510411140885   20.10043743587532    2.60662545962715
S           2.37370612703502   18.45868812855542    2.53042185703175
C           2.29475270164402   21.16565136555593    3.34343998493734
C           3.38999817628440   21.22321082247168    4.17214942761524
C           3.82815604064260   22.38653986557280    4.91537256816671
C           3.23805150720932   23.62625002254884    4.95177392880248
C           3.72565073664170   24.71092764130428    5.70918093080518
N           4.06361085982330   25.63613428495231    6.30014265472332
C           2.07226348884141   24.01026969888721    4.25955324922209
N           1.12909922796626   24.40731146777800    3.73588523381270
C           5.03124612711348   22.01060616441233    5.65428462893414
C           5.32492444287372   20.64556186011994    5.37527852670268
C           4.31261145196539   20.11603897719807    4.44823482741476
O           4.26498452161011   18.98094417210870    4.00437168199935
C           6.39677215464258   20.00662227851853    5.92639082683284
C           7.24504154023930   20.71909762845234    6.80405871888697
C           6.95984110787496   22.08471387040561    7.09006392588585
C           5.84055782383393   22.71908371981565    6.50130942692481
C           7.81098838387335   22.78593421579349    7.96757644842751
C           8.89256866654406   22.16956278369687    8.53629765830473
C           9.17264470228939   20.82484482491142    8.25333722448061
C           8.36608307599649   20.11496070063897    7.40535983189622
H          -4.93671478137818   -2.91598653915500   -0.69125021844625
H           0.03781616091416   -2.77274958858815   -1.02472519435796
H           0.14626191717866   -5.09684367395899   -0.34374556575712
H          -0.97024211012697   -7.18052574969738    0.34598456013425
H          -3.42563441026493   -7.27598578221329    0.51863596364637
H          -4.78384941696305   -5.28731066981238   -0.00045896749862
H          -3.85414762917236    2.11901675753611   -1.73777243199034
H          -0.19669991393069    1.93069221178519   -0.40141537209786
H           0.93992257581614    4.80956724542973    2.51614262074404
H           2.64282355443791    5.13183971857322    2.27490980412873
H           2.03329874515938    3.50187025933913    2.11581143716806
H           2.73544881246267    4.46397046678499   -2.05181556892851
H           3.26917802377127    3.33760451282390   -0.82686517393176
H           3.83614004259216    4.99242820427026   -0.79409101939371
H           2.10123719456848    8.20968701877241    0.29553706280441
H          -1.54613330711907   15.24339492694394   -0.94879417220257
H          -0.14495490645863   19.19663800531809   -2.08140667142587
H          -1.41783231858138   20.30139917183006   -1.60897435810066
H          -1.82229272058434   18.75309155574110   -2.31276353197963
H          -2.88395178435878   18.14367515817652    1.87014711011930
H          -3.62098722810134   18.04849457405556    0.28560495156093
H          -3.21716850272127   19.60640988779910    0.96828554053313
H           0.09304393184552   21.18548314716567    1.75375134971187
H           1.72404110972016   22.07960369117063    3.23062720831378
H           6.59525671145756   18.97023137968975    5.69652624441401
H           5.65492202095352   23.75410469185513    6.73955920119519
H           7.59128948223806   23.82148324569406    8.18250387646409
H           9.53829990169470   22.71567219233056    9.20762925403006
H          10.03012925226612   20.35381896558013    8.71044492677847
H           8.57637377988933   19.07874729942882    7.18354602234588
