101
 SCF done       -200.478531515869          0.000729784486
C           0.82470456788300    1.19361456384210    1.32542274179101
C          -0.22037328177335    1.61253297094417    2.10802350651668
C          -0.40659065968694    1.21011999073733    3.44730251155455
N          -0.60909147351639    0.91088451125888    4.53631453755561
C          -1.28176972835367    2.41129077006986    1.64227364724241
N          -2.17673423151374    3.04420685183980    1.29943925570755
C           1.80560439629474    0.18666839885743    1.71721847353690
C           2.38940404257297   -0.36237157606893    0.53809186338469
C           3.32034156864681   -1.35915214089680    0.59718989703069
C           3.72619139163479   -1.84864479241212    1.85942423563709
C           3.16426811170316   -1.28562191613243    3.04190689559024
C           2.19494699569277   -0.26021094812432    2.95059312182494
C           3.58828782532126   -1.77340926737786    4.29450036702529
C           4.51866337319012   -2.77337624337632    4.37776812401575
C           5.06877881079821   -3.32968684802805    3.21336018791330
C           4.68110729003363   -2.87726629534280    1.98125309175806
C           1.84407823861240    0.33098802338048   -0.64096830171199
O           2.05897217041489    0.10786231900366   -1.81036381123387
C           1.00108631303548    1.43446485941179   -0.09141405145128
C           0.64016598501435    2.45341554098556   -0.91926246710425
C           0.20357510115584    3.75231735881904   -0.57827832218583
C           0.35471729706045    4.43294281203191    0.62127820878422
C          -0.17855216875908    5.71329495455021    0.57077750526777
C          -0.74164952542668    6.02604471287468   -0.68338936309382
S          -0.59049684129612    4.74664219429049   -1.79504164057716
C          -1.27018227853671    7.33936477254994   -0.61804518645861
C          -1.04490570088630    7.85263756582463    0.67228907515240
C          -0.36229563509858    6.84338578109702    1.46487258970269
C           0.00260069513848    6.91584134565312    2.77692071988569
C          -0.23140548306523    8.06154788681959    3.56651668879612
N          -0.41128048244608    8.99204980069207    4.21153328116922
C           0.64190294937690    5.83491049762205    3.42055389760837
N           1.16658743907410    4.95073366394078    3.92846268470839
C          -1.52690199150454    9.14925256618131    0.83526976052383
C          -2.11837211799501    9.63466204804265   -0.31652063052099
S          -2.07890329494556    8.45601661926646   -1.62271814253074
C          -2.70679126113893   10.92294727083404   -0.51734704593468
C          -3.30366001625485   11.29133457381899   -1.71739958187289
C          -3.86984174431536   12.54189901962259   -1.92687542395654
C          -3.88534773059904   13.53706407140638   -0.95655972453681
C          -3.28949973028224   13.20408006232748    0.29053583065002
C          -2.70699234016467   11.90657655790494    0.50925752739751
N          -2.20466591398443   11.79545547756887    1.73826896311431
S          -2.43948423641262   13.16664669017186    2.53671662595700
N          -3.18625142814632   13.97663216004252    1.37103849920008
C          -4.46044939437155   14.82622258515128   -1.18863688590574
C          -4.48078979277272   15.90660329889853   -0.32527094009308
C          -5.11824538600516   17.01293264557217   -0.88176538407096
C          -5.59585551925802   16.77399016256176   -2.18293290633056
S          -5.25172459691134   15.18918491000298   -2.71703999124258
C          -6.22549798599081   17.94889127982719   -2.65741226226353
C          -6.13829473165700   18.94083018775299   -1.65416492376681
C          -5.45319124594393   18.37720636405576   -0.50197344917711
C          -5.19436624433913   18.98211166169554    0.69168071120332
C          -5.60622393033742   20.29928754467786    0.99213457593853
N          -5.94603382832892   21.35668764970336    1.27503437772957
C          -4.50979696642683   18.32048337939815    1.73454289173491
N          -3.94885572012416   17.79600099888259    2.58590426651087
C          -6.70468058260327   20.15058701465295   -2.03108629905139
C          -7.23650873434805   20.10377481375330   -3.31366438477848
S          -7.03280112303461   18.50401791971519   -4.04530526802945
C          -7.94145725664418   21.05327223362221   -4.08007709130078
C          -8.07206352084925   22.40369106196590   -3.90610887780240
C          -8.93365525755340   23.24889391615448   -4.71517447105170
C          -9.95058566057190   22.83263632660504   -5.53623398508899
C         -10.76968776610318   23.70657194515550   -6.28135161888994
N         -11.46644132429558   24.36050699980106   -6.91797791478047
C         -10.35350621758478   21.49485177210180   -5.72953267518598
N         -10.75334288759436   20.43539241509568   -5.92396105429562
C          -8.59245327617718   24.63759690372699   -4.43392944798873
C          -7.59603280589064   24.65889012692025   -3.41797979931461
C          -7.25469477879016   23.28067398942413   -3.02836235818045
O          -6.42836227111892   22.95602953094562   -2.20208312276992
C          -7.07984064534858   25.82630412233591   -2.93457452081749
C          -7.54604303825034   27.05287161276945   -3.45819146166313
C          -8.53833111752008   27.04120112535035   -4.48070612288748
C          -9.05410696135237   25.81510491358546   -4.96023359333204
C          -8.99241463188618   28.27077305336864   -4.99963579842457
C          -8.49259008220652   29.45556122728311   -4.53168784459741
C          -7.51614316643152   29.46572141876685   -3.52452722788644
C          -7.05337643574840   28.28991585436021   -2.99870076394152
H           3.74468883859897   -1.76878720512815   -0.30740559110479
H           1.79388962851202    0.15804196090684    3.86057372478056
H           3.15915925489702   -1.34389662210654    5.18770554549523
H           4.83557637478034   -3.14177452549330    5.34190886363359
H           5.80180822791885   -4.11802162809989    3.29734122893902
H           5.10206511764888   -3.30150483524466    1.08140998805693
H           0.77694334127633    2.25327164237533   -1.97771386901770
H           0.87125849710880    4.01923403292796    1.46796422733654
H          -1.46310376756124    9.73530505475730    1.73352241421782
H          -3.32797135743748   10.57321737964396   -2.52425773509524
H          -4.31421767525452   12.75129513026797   -2.88920370929047
H          -4.04295108238888   15.85916811515860    0.65462236452976
H          -6.73337525645892   21.03550975814438   -1.42274976101308
H          -8.43398659017253   20.62649697514302   -4.94650857726855
H          -6.32684600326790   25.81275835801676   -2.16065990112685
H          -9.79960547818519   25.84066557620535   -5.73897344214558
H          -9.74551107023163   28.25799630634923   -5.77386074442815
H          -8.84752832637582   30.39205883919095   -4.93515619202036
H          -7.13239522005416   30.40971840126300   -3.16749628668490
H          -6.30185782323907   28.29111510901254   -2.22282753976669
