105
 SCF done       -214.424725300502          0.000885235452
C          -1.18017108477533    0.80103794115979   -2.31966576119280
C          -0.91608386026928    1.58513056127110   -3.41268461269151
C          -1.08019595521449    1.15158484668322   -4.74539673900716
N          -1.19009456600697    0.84537024707348   -5.84543798742896
C          -0.35716611752420    2.87498965488165   -3.33791523555089
N           0.11937537976477    3.91971589969704   -3.31808408447867
C          -1.52898182685105   -0.61503238347171   -2.37562666267476
C          -1.22216086818096   -1.20944445980747   -1.11640976348718
C          -1.40489544838700   -2.54330545956216   -0.88947652531394
C          -1.92457086897956   -3.35301038829446   -1.92431324343325
C          -2.25733922876094   -2.75937105781361   -3.17660306445740
C          -2.04988288851051   -1.37652655893266   -3.38648699319712
C          -2.78690122682969   -3.57632018918579   -4.19587807480438
C          -2.97401357700249   -4.91648311799640   -3.99233970540764
C          -2.64274462696063   -5.50071341358283   -2.76066307602579
C          -2.12944183705869   -4.73573813793600   -1.74869304737566
C          -0.73487595297229   -0.17055047383279   -0.19538158920476
O          -0.33009497541959   -0.29793901339099    0.93705786391573
C          -0.90051753427522    1.11848046971439   -0.93416285663097
C          -0.85385758979398    2.27865319321110   -0.22563777527462
C          -1.32542807882369    3.56198077797169   -0.58429472282933
C          -2.24453778985413    3.91527912329502   -1.56103322532817
C          -2.46965334849160    5.28563998975446   -1.60005055055302
C          -1.72405248127331    5.99044713765104   -0.63611201886874
S          -0.76622982209723    4.96186091273062    0.32239276065091
C          -2.00553645945408    7.37241952898562   -0.78085639355049
C          -2.91959170949132    7.54229053352193   -1.83531534904825
C          -3.24659093370620    6.23432568242664   -2.38199254368991
C          -4.09251750794581    5.93933014787218   -3.40872967343750
C          -4.85167695737613    6.92040241562014   -4.08345781515575
N          -5.49928436540355    7.70017566771436   -4.61759077935617
C          -4.28070085491904    4.60818364568166   -3.83978970421208
N          -4.42551212827893    3.52166650105633   -4.17608704134629
C          -3.24187602155736    8.87954554072555   -2.07035095445021
C          -2.58667920670910    9.72645980978524   -1.19498385972517
S          -1.55667396909384    8.85364287895517   -0.06787646928155
C          -2.65980292080565   11.14550991680616   -1.10321037985068
C          -3.16053857972270   12.04871675170671   -2.03166557041013
C          -3.61723855348228   11.66252954513437   -3.30234855377166
N          -3.95837656908139   11.33522217222596   -4.34673154652266
C          -3.07789215432509   13.39539814359049   -1.57742989888536
C          -2.50152948590025   13.46677902066797   -0.31381645280031
S          -2.06487115112656   11.93822248897420    0.33951227651205
S          -2.33615258834424   15.06288681452943    0.33996049880676
C          -3.06107035143226   15.66565381190651   -1.11349591059536
C          -3.41271101462399   14.69997728164909   -2.05011849735154
C          -4.00623682766253   15.29236074693928   -3.20014863074234
C          -4.49031158625924   14.58697077315033   -4.31277748591099
N          -4.90481136184809   14.03986221602469   -5.23175176087003
C          -4.08231443957242   16.67629837726296   -3.10665056252758
S          -3.42743035698154   17.27486780849609   -1.59510495356651
C          -4.59573991940381   17.61766959078399   -4.04056266805664
C          -4.65124189168790   18.98875432002482   -3.84573964009277
C          -5.19266671000281   19.65099036041306   -4.94383275086287
C          -5.55144040179260   18.77300709284723   -5.98200992324241
S          -5.22807902184257   17.13856203267459   -5.60668324351980
C          -6.07951488753904   19.53564411549441   -7.05385649229439
C          -6.04975069892379   20.90051964637385   -6.69187196357976
C          -5.50895378251895   21.01345966160776   -5.34689723675336
C          -5.34957630050107   22.14415742466338   -4.60292819105376
C          -5.73109517024638   23.42774509188779   -5.05247298544109
N          -6.04816663259877   24.48059855483895   -5.37508111861488
C          -4.80566987768056   22.10408363951964   -3.30071546852467
N          -4.36235244649207   22.07125284056659   -2.24371458451167
C          -6.51763813703376   21.74204917187588   -7.69293850082130
C          -6.91153346304847   21.03890132210547   -8.82389157272052
S          -6.70818260783453   19.29326413571431   -8.61180378532489
C          -7.47132535997400   21.44947972567587  -10.05266405067531
C          -7.57997053518061   22.69231952580708  -10.60998314461767
C          -8.26399494051112   22.95931547384125  -11.86657781386149
C          -9.13885643834634   22.12734643037600  -12.51603685830541
C          -9.78576054764026   22.45481627154187  -13.72667089273950
N         -10.33869328941493   22.65511884451342  -14.71246136192647
C          -9.55626440196649   20.85707813641520  -12.06555898247024
N          -9.96239961477795   19.82791267062279  -11.75719784467240
C          -7.92974818860758   24.31601894553636  -12.27997727114104
C          -7.13130468369299   24.91201659424753  -11.26391249496414
C          -6.90729509385362   23.94569624939468  -10.17694770998390
O          -6.26142407957788   24.14335193655724   -9.16997756075025
C          -6.67605901395489   26.19544001854485  -11.35991101214721
C          -7.00327792777063   26.95688882580682  -12.50373118493618
C          -7.79216314062229   26.36453549351558  -13.53199947233467
C          -8.25007881188655   25.03322964510987  -13.40251761837393
C          -8.10727534297208   27.13144849455536  -14.67217316177263
C          -7.66845744243534   28.42209854579328  -14.79094353655514
C          -6.89404248994884   29.00490080159475  -13.77676213304335
C          -6.56831699020620   28.28786262882840  -12.65753119419334
H          -1.15714183575347   -2.97617122444341    0.06829998100508
H          -2.32116264017859   -0.94978589789293   -4.33939602832562
H          -3.03711090197949   -3.12249491125828   -5.14340119110583
H          -3.37802463516649   -5.53435341185991   -4.78008726636019
H          -2.79682145694965   -6.55970239987864   -2.61732336411945
H          -1.87326027482396   -5.17995082444089   -0.79796696390211
H          -0.45380034936221    2.18045883600562    0.77941858219879
H          -2.74868212916724    3.19476645597420   -2.17849306466254
H          -3.92056843745903    9.22315250882817   -2.82885851343303
H          -4.30851327957526   19.46397477379027   -2.94383507283563
H          -6.56633212799108   22.81382769513425   -7.63020632953290
H          -7.85180112795143   20.62290149513656  -10.64212073287809
H          -6.07588844643797   26.62338316956670  -10.57078747198815
H          -8.84050883709948   24.61320674074247  -14.20101070990206
H          -8.70529927597002   26.67915516098785  -15.44957084922101
H          -7.91645309406111   29.00168163857247  -15.66744579737810
H          -6.55675821239308   30.02467417446772  -13.88690638791441
H          -5.97222842556008   28.73078743809759  -11.87326869235880
