98
 SCF done       -192.929868523216          0.000899007094
C          -3.75972789738600    2.81979480354014    4.67522806024733
C          -4.81789324278431    3.30414820975782    3.95136345697555
C          -6.06092600860997    3.65062584920715    4.51790879641181
N          -7.08293175745058    3.96568152276900    4.93438836189939
C          -4.80242861561132    3.42683889912497    2.54709349029802
N          -4.83162257019636    3.50490464212144    1.40203403414189
C          -3.81400852100813    2.40037406395132    6.07012364035314
C          -2.75476755520788    1.47432464409455    6.30434989174385
C          -2.58664618174270    0.87259548489417    7.51821380090807
C          -3.47634243473847    1.18413051647633    8.57123538811320
C          -4.52419030834855    2.12421152817218    8.34785719360070
C          -4.68017855212070    2.72623957663567    7.07831159182356
C          -5.39885219343240    2.43186091037425    9.40962767748596
C          -5.25099378345187    1.83706280946525   10.63298372072706
C          -4.22121367015070    0.90967937704676   10.85142811832217
C          -3.35308842882863    0.59016360388899    9.84281562587912
C          -1.95036683989431    1.33068425168423    5.07773206616543
O          -1.00990020791191    0.59857080483659    4.87769149563276
C          -2.50117484178652    2.34848873667131    4.13324411252377
C          -1.76589101561641    2.73235267033429    3.05795482910799
C          -1.86580826034819    3.91433240653939    2.28231974133816
C          -1.35565065617705    4.09783989487723    1.00773056849169
C          -1.58982839596906    5.38313015313515    0.52564561358432
C          -2.24747659257167    6.20169354974317    1.46175813743340
S          -2.59111236809050    5.39017321366712    2.91548952050118
C          -2.44285960377566    7.48216481309162    0.88577329857468
C          -1.91951144681522    7.47339598188834   -0.41653633187755
C          -1.35946943712362    6.15659805299823   -0.68486145523081
C          -0.74640528260707    5.73938859767964   -1.82859300677091
C          -0.58428320826077    6.59104225415904   -2.94229119264013
N          -0.45064784006281    7.28709224968035   -3.84321673035385
C          -0.22346488081412    4.43591654101464   -1.96990749522711
N           0.21166664237568    3.38216779770500   -2.08829136508504
C          -2.08599970513103    8.69475020435396   -1.07368826229632
C          -2.72462644152578    9.62788646151076   -0.28218901804590
S          -3.12802994731991    8.98480093446014    1.30474705469762
C          -3.07166037816065   10.98040077386796   -0.60818583480130
C          -2.95077645488690   11.52372838329529   -1.90037599721769
N          -3.27520523000255   12.76218049551802   -2.18151962382019
C          -3.73994249235498   13.52074236704861   -1.18569018688047
N          -3.89817451477174   13.10880829592225    0.07730201912896
C          -3.57204474230720   11.87228284877312    0.35512426430257
C          -4.10572239594673   14.87821283679436   -1.46016134323720
C          -4.07471917909721   15.55577791949445   -2.66233062256241
C          -4.51671768031304   16.87092174996315   -2.51427250564953
C          -4.87616427555949   17.17211197826869   -1.18567848566696
S          -4.67764646656319   15.84867856617957   -0.12835843708203
C          -5.30585761890353   18.52122748467619   -1.13078139990703
C          -5.22307799571947   19.07607886162369   -2.42647307756644
C          -4.71860850481920   18.05573279264281   -3.33512602770584
C          -4.47797339043369   18.17866441782259   -4.67080691887618
C          -4.67805509600414   19.37824938837511   -5.38953021973206
N          -4.81558184725598   20.33444886923322   -6.00568745598077
C          -3.99271962513894   17.10251406126248   -5.44621845269391
N          -3.60180938863311   16.23671185816623   -6.08765398828576
C          -5.63668998633470   20.40125709817146   -2.47999056776214
C          -6.03621361226823   20.87450868568584   -1.23619308183835
S          -5.87785057083494   19.63266456167852    0.01633231528085
C          -6.50185443218927   22.12649195268144   -0.78198320436909
C          -6.83986919894831   23.26819272544677   -1.45230396246135
C          -7.27151118581092   24.49203189242759   -0.79091666134743
C          -7.19825414048828   24.77924513802195    0.54797668439854
C          -7.63129807642062   25.99541647340567    1.11881394512530
N          -7.96938231781090   26.95313844076637    1.65421954571348
C          -6.66507320383678   23.94612031435977    1.55402635515040
N          -6.23463833662219   23.34519685794756    2.43357618904924
C          -7.74948632907403   25.41054806326891   -1.81676015325017
C          -7.55145793257384   24.80754503257274   -3.09023995330891
C          -6.95770733519879   23.47216558414375   -2.91975031312381
O          -6.66146869530060   22.70660725264426   -3.81236295690428
C          -7.89360943916542   25.43718407845590   -4.25213837501161
C          -8.46717586884455   26.72659022324405   -4.19164270954887
C          -8.67697629613962   27.33572282784381   -2.92057163863658
C          -8.30900066143093   26.65883375421846   -1.73531917684766
C          -9.25482576294472   28.62075014888362   -2.87083894043109
C          -9.60784023310111   29.27432026578825   -4.01999126616387
C          -9.39981729294962   28.67392432961887   -5.27082334468611
C          -8.84130398360808   27.42729318711352   -5.35495825653423
H          -1.78539312946170    0.16568941516243    7.67423385533081
H          -5.47583239181268    3.44104712106561    6.93570339699136
H          -6.19243563785332    3.14348499293747    9.23514386788877
H          -5.92771288520319    2.07730509178075   11.43919043602223
H          -4.11914913742434    0.44981169754843   11.82290731948541
H          -2.55846932272272   -0.12313313652193   10.00558093020541
H          -0.93998244492115    2.07551997288319    2.80034003067565
H          -0.87145806360374    3.30912456256362    0.46072500741803
H          -1.75368541249730    8.89661222459347   -2.07527166896818
H          -2.58826501347806   10.93474062569939   -2.73195523585101
H          -3.70543852701799   11.56383089860402    1.38554553548300
H          -3.74630593207462   15.09163402631260   -3.57397275635358
H          -5.66573448927465   21.01265444964963   -3.36452099136838
H          -6.61817082910677   22.15827492818615    0.29532562325784
H          -7.72790039128691   24.95540163189658   -5.20425646672111
H          -8.48540443063271   27.14733548452910   -0.79047640598527
H          -9.41184512558638   29.07941063429383   -1.90558288220180
H         -10.04945636079058   30.25836977250446   -3.97140035014823
H          -9.68451079656501   29.20413980471267   -6.16727044447224
H          -8.67851545936712   26.95968695285105   -6.31490940854271
