103
 SCF done       -205.469423876268          0.000858622171
C           1.55995050397827    4.19985811070997   -4.52958941777881
C           2.09318394087953    5.41367048936038   -4.18399672222393
C           2.64612923536909    6.31893085981709   -5.11255881950439
N           3.09398699358990    7.09457986326714   -5.82984924467690
C           2.23216969618246    5.84616879886836   -2.84948006019242
N           2.38912431324462    6.21439771784083   -1.77342932129217
C           1.65125181209556    3.58333341999534   -5.84720355542606
C           1.50657303233473    2.17223484709269   -5.69698431401227
C           1.59881056406110    1.32600072372989   -6.76445232808403
C           1.83225413963260    1.86232102693928   -8.05083598388410
C           1.95714752135967    3.27344736087322   -8.20927595197310
C           1.86425606952944    4.12606431653287   -7.08547538100127
C           2.18192903612999    3.79479807410311   -9.49955309870973
C           2.28429333624988    2.96406196955748  -10.58199836788375
C           2.16391752287374    1.57512836114287  -10.42494400233779
C           1.94262448927110    1.03606759163520   -9.18664683722014
C           1.24875151638046    1.85471938752262   -4.28186343335416
O           1.12810968534147    0.76964639920432   -3.76422421456443
C           1.09283382630971    3.18113745265192   -3.60996521164124
C           0.49693462877823    3.24476671281034   -2.39249653665100
C          -0.11404088649659    4.35065882102897   -1.74740428441324
C          -0.36882911345780    4.45647092075324   -0.38993536202050
C          -1.01438742084724    5.64761909408764   -0.06745976930138
C          -1.29210503640458    6.43598772104897   -1.19891382349944
S          -0.74515637561074    5.72752251591482   -2.64441062312951
C          -1.94902739065234    7.61876221402377   -0.77703254118005
C          -2.08034994356406    7.58466091915080    0.62336448253191
C          -1.50019661180005    6.34266466093676    1.11459037234075
C          -1.42748190950397    5.92062466690211    2.40839069392278
C          -1.93517932397903    6.69042430520950    3.47729664571524
N          -2.35015797911411    7.31424170631543    4.34458224078444
C          -0.85002849013104    4.68264284272101    2.76464610930012
N          -0.39197300315303    3.67358060377575    3.05708463017530
C          -2.70608376057939    8.72157797471899    1.13645826063097
C          -3.04399432316875    9.60608293107409    0.13108657951417
S          -2.59020771045411    9.03581204426480   -1.46520739783470
C          -3.68145024021973   10.88706179807423    0.19464580071983
C          -4.09653372927324   11.53344669988697    1.31572198150602
C          -4.70894146812831   12.82344818600750    1.21478948126881
C          -5.14391123191104   13.52254160763508    2.32676621191211
C          -5.73714850384065   14.79019039530699    2.21090472498994
N          -6.21832534408576   15.82752539672283    2.10082530253840
C          -5.01503754479699   13.00743343824774    3.62709615828353
N          -4.91249936271980   12.58206453822836    4.68898105822856
C          -4.84221710612825   13.35499619169566   -0.10776862884884
C          -4.40363163410139   12.64586267514469   -1.17974260936252
O          -3.83034409368647   11.42207797004233   -1.04758627639682
C          -4.47172361679763   13.06809736070439   -2.54924563946366
C          -4.02211751077741   12.33470829725548   -3.63101612740556
C          -4.21009283742723   13.01840632569031   -4.82994515332289
C          -4.80812230680025   14.27813473707650   -4.65068367737797
S          -5.14081464086723   14.61711833717774   -3.00994638200089
C          -4.94018714181458   14.89716630598762   -5.92074074620428
C          -4.41699256184869   14.02633280778121   -6.89939394888898
C          -3.96318037814180   12.80875523520678   -6.24791936865501
C          -3.44194196152601   11.69150236314985   -6.82993506215988
C          -3.29118111320744   11.55474823316533   -8.22750459040448
N          -3.18460619632639   11.40902277063250   -9.35901098060340
C          -3.04762284035506   10.57227432964570   -6.06501934473349
N          -2.73099641940235    9.66438004918044   -5.43994144107978
C          -4.45499828640137   14.56065517334951   -8.18241906421334
C          -5.00491160646500   15.83366221790196   -8.19899618145765
S          -5.51364504244393   16.35075095596767   -6.58953891944847
C          -5.25652079730869   16.72153129671910   -9.27074218497782
C          -4.65408671180444   16.76348842197859  -10.49374410865988
C          -5.04283019373117   17.65237386575031  -11.57637813466951
C          -6.25646458822482   18.27356214799806  -11.71294522261607
C          -6.59758630882017   19.10395440188533  -12.80128575821878
N          -6.92867784258678   19.79385309192234  -13.65671221776837
C          -7.33741488922057   18.13296897886022  -10.81704946290633
N          -8.26095051437287   18.04195462378900  -10.14075138552248
C          -3.95424700349801   17.68243538343649  -12.54272459067412
C          -2.95361250031238   16.76011112551933  -12.12298034563815
C          -3.36287781963572   16.11922825124811  -10.86331031020675
O          -2.73413131217074   15.29393844121739  -10.23701989063674
C          -1.80766211032876   16.56264309117392  -12.83861640063126
C          -1.60566349695333   17.29535674787149  -14.02928118965256
C          -2.59832163213967   18.22680013904387  -14.45203781701333
C          -3.77551365199156   18.40863692520977  -13.69054649473302
C          -2.38227371469645   18.95707833985770  -15.63834968221849
C          -1.24252554793814   18.77619094368441  -16.37387381173455
C          -0.26676244448065   17.85820008105295  -15.95742469270685
C          -0.44464563435182   17.13301029234118  -14.81039542665711
H           1.49661561144739    0.25947656900542   -6.62985862497756
H           1.95219203567076    5.19145991022973   -7.23198890239254
H           2.27721565948133    4.86443675775197   -9.61478802643805
H           2.45942079063467    3.37281843384109  -11.56579303735006
H           2.24705448653978    0.93446597319006  -11.28998431870031
H           1.84880842812671   -0.03248942097759   -9.05992124780997
H           0.41353122947010    2.29742904979856   -1.86725038487149
H          -0.06011752894526    3.70705216087308    0.31624001037420
H          -2.90322569912575    8.89974007481198    2.17741417305505
H          -3.96449837973948   11.08352865860129    2.28538441028324
H          -5.29252700485202   14.32501503467932   -0.24804400850012
H          -3.58104437990807   11.36014774348752   -3.53007365511151
H          -4.10799649823727   14.06014956534650   -9.06638695945340
H          -5.99920095514572   17.48080716960497   -9.05326910596136
H          -1.06573718341177   15.85486570011323  -12.49992634878940
H          -4.50479645127283   19.12621146935845  -14.03177146396080
H          -3.13689073842566   19.66153721554723  -15.95591798630502
H          -1.08666405067571   19.33987076827071  -17.28136324045112
H           0.62663854351279   17.72880165597722  -16.54967911222898
H           0.30298293404858   16.42483709721360  -14.48451303132244
