106
 SCF done       -210.172649014172          0.000669480353
C         -13.52518934387493   13.32209487758383    0.02342164615085
C         -13.22504345532554   11.99372461477748    0.18578778975142
C         -14.00936365847947   10.94310356232097   -0.33448596416238
N         -14.61449990466379   10.05096581082167   -0.72800484333096
C         -12.15902344378285   11.51869209706154    0.97249256815433
N         -11.31695847736731   11.08864719059580    1.62454881167376
C         -14.75196882808087   13.83016946783954   -0.58303300484070
C         -14.95873064001805   15.16854158448995   -0.13770689761508
C         -16.05437566830915   15.88924511088308   -0.51639519237409
C         -17.00285935536370   15.29742100755595   -1.38095763025211
C         -16.79090146138362   13.96711791851146   -1.84573897515429
C         -15.64935084397136   13.24202791509261   -1.43244113873458
C         -17.74032903488851   13.39198923740665   -2.71440899969396
C         -18.84902048091824   14.09354576725923   -3.10309887209637
C         -19.05764559112723   15.40261411548633   -2.64408353402683
C         -18.15425324815698   15.99169154126625   -1.80155832391268
C         -13.83114950430207   15.57428801708994    0.71790352217508
O         -13.68124412930750   16.61311958792941    1.31987284326255
C         -12.85739616615590   14.44527909199639    0.64556205036081
C         -11.57976848859830   14.66378307367656    1.06330648972547
C         -10.40840523930396   13.93616647508616    0.76223255713047
C         -10.17105626198185   13.04394692766292   -0.27359867785044
C          -8.86935340882835   12.56072725994572   -0.26323646109188
C          -8.09579424411848   13.08728966756246    0.78961178087855
S          -8.96796016672052   14.19022969282600    1.74344854372049
C          -6.79534701023473   12.51966902476054    0.71492029970381
C          -6.75472981430115   11.63843800814626   -0.37490879158125
C          -8.05373972956257   11.62648295674379   -1.02258164734191
C          -8.43670693370931   10.88618808205877   -2.10230294257117
C          -7.55635484000079    9.99785199251992   -2.75539622175716
N          -6.84254211760528    9.27189581349099   -3.28309591689007
C          -9.74526701496431   10.96856286009505   -2.62343244202987
N         -10.81068041904792   11.04934426981622   -3.03982679642215
C          -5.50338298065343   11.03770995879541   -0.54347771203577
C          -4.60010287545508   11.46298982696494    0.40069753427351
S          -5.29688561858538   12.60276111819016    1.53164857676185
C          -3.21900814967464   11.08324306794164    0.50940324909954
C          -2.43023626792346   11.03982118753253    1.62892131605571
O          -1.19807782447826   10.60866434547441    1.32715389894179
C          -1.16940141476020   10.35886317085462    0.01290632075611
C          -2.37948509219935   10.62543895153008   -0.56367396247228
C          -2.72813580416055   10.62837483007567   -2.00131482777946
O          -3.30852248843067   11.56744817399615   -2.51554097453342
C          -2.33427013821087    9.45943919181439   -2.76450554731561
C          -1.77130872837101    8.26467296043906   -2.36669702234175
C          -1.55450278745281    7.38537991674712   -3.42376835478261
C          -1.96414121824050    7.89759088828517   -4.64339954514310
S          -2.63197690968771    9.48480237934767   -4.47122002160630
C          -1.85827355549953    7.27156658565103   -5.91830312351779
C          -1.14244040450534    6.13013509197821   -6.23179334261918
C          -1.22341579851246    5.82077158652016   -7.58946452688687
C          -2.02001705298420    6.72866981310218   -8.30869796489063
S          -2.65740244789129    7.96299791414996   -7.31694332023753
C          -2.02755140784287    6.34103393924585   -9.67236241126715
C          -1.21711903601383    5.19533813241806   -9.81727316213010
C          -0.70314101793506    4.82068847796058   -8.50966689766229
C           0.08890684535386    3.75431932908544   -8.20312721687068
C           0.51221765699582    2.81184817957782   -9.16554045087296
N           0.85267419542025    2.02061334958854   -9.92161156979976
C           0.52478425589709    3.50786907920752   -6.88365614264796
N           0.88016598980513    3.31149186445084   -5.81121247543626
C          -1.11494502972297    4.76212309454677  -11.13377894919986
C          -1.84780782966660    5.55795518111221  -12.00243144561496
S          -2.70028422368352    6.84854244805535  -11.14752666574209
C          -2.04906917508047    5.46513561162902  -13.39698341289586
C          -1.24688306319855    4.86668321852513  -14.32610657930366
C          -1.57523968422732    4.72058242964870  -15.73270336536137
C          -2.83037475089461    4.78248527627650  -16.28000492761569
C          -3.10157788104610    4.60058053601896  -17.65206618636666
N          -3.38504473348020    4.46788285660141  -18.75656675821493
C          -4.01821332474714    4.99206196888075  -15.54865153755303
N          -5.02459618900612    5.13728780048696  -15.01503237588492
C          -0.34723687699247    4.40061684979728  -16.44750500875948
C           0.70450135978514    4.26465352029200  -15.49729674649102
C           0.18305206014182    4.50113530741669  -14.14039822866555
O           0.81961123028819    4.47366101865296  -13.10908882930547
C           1.98293227153239    3.96848721542057  -15.87326548117187
C           2.27353870818508    3.79352791736149  -17.24483881090118
C           1.22733605471119    3.93149240330334  -18.20255066233022
C          -0.08769772642720    4.23679026568110  -17.78236918258671
C           1.53080613409398    3.76112695273734  -19.56857482553054
C           2.80568219366645    3.46957704951612  -19.97145436274890
C           3.83491415385650    3.33444661712509  -19.02786110188556
C           3.57422725700147    3.49144965442129  -17.69347759826599
H         -16.19658224008070   16.89932340767520   -0.16185436821117
H         -15.50563499142849   12.24149783026783   -1.80936784173516
H         -17.57648321661235   12.38288830890062   -3.06275608109215
H         -19.57207004635707   13.64314306198534   -3.76649827076178
H         -19.93738964445269   15.94220092126391   -2.96156317884275
H         -18.30940806473972   16.99962772701702   -1.44527069356880
H         -11.44335178370883   15.56639016658503    1.65181288759503
H         -10.90576823863758   12.80332534789751   -1.02023167169227
H          -5.26799015154544   10.32555319304230   -1.31162360746453
H          -2.64269670850871   11.27893322507156    2.65202508847808
H          -0.23748361621222   10.04110629446504   -0.41167832679027
H          -1.53772469722526    8.03612352547416   -1.34286815599292
H          -1.12747602199002    6.40607521572954   -3.30927809513879
H          -0.57989185881088    5.57076011830953   -5.50790302304370
H          -0.54869109560349    3.90975705916580  -11.45781487922090
H          -2.93530467926704    5.97618153638341  -13.75597685624791
H           2.76262517362696    3.86936834707679  -15.13272275240037
H          -0.85676138089397    4.34326161963555  -18.53102082379543
H           0.73476875543366    3.86478022731320  -20.29126419908930
H           3.02803380278633    3.34154970555083  -21.02021081657631
H           4.83536145431955    3.10569080177881  -19.36345355763176
H           4.36246731796606    3.38816923765464  -16.96217368699986
