104
 SCF done       -209.589698173320          0.001265876030
C          -0.39730745790696    3.26090854765176    5.96006384208881
C          -0.84139597200412    2.91973668499149    4.70880503600455
C          -1.53950162360005    1.72714426998144    4.42334118102152
N          -2.10570895245381    0.77188631045493    4.13361763006245
C          -0.56982040606814    3.65261482640304    3.53756669846753
N          -0.34941505625302    4.18802410212633    2.54534792017969
C          -0.45035990033089    2.38368072415366    7.12468594380232
C           0.53115729795957    2.81479868291735    8.06474520334960
C           0.74791084412183    2.14270876923870    9.23312982587916
C          -0.02828711185150    0.99804024406084    9.52380416992073
C          -1.03045099135842    0.57991037466355    8.60087352834691
C          -1.22947296787085    1.29164657956845    7.39582152380400
C          -1.80507294889429   -0.55714853132254    8.90728180070916
C          -1.59645311444082   -1.25447603349916   10.06583009400076
C          -0.60718151587825   -0.84470266775847   10.97233759484504
C           0.15937715373728    0.25772559407783   10.70768011812522
C           1.18672536922017    4.03182936400550    7.55778551783544
O           2.10083109232347    4.65322605510903    8.04882569803766
C           0.44776775579668    4.38533144292518    6.30875152213426
C           0.61427802919200    5.62431551798974    5.77471214511311
C          -0.19945529933142    6.28835640514773    4.82652235794423
C          -1.53527800850384    6.07573774251603    4.52215194257013
C          -1.97732175905899    6.91116110619549    3.50264025571922
C          -0.97377156765344    7.77325989361790    3.02749294401413
S           0.49155545064814    7.58474993797754    3.86016089175338
C          -1.51275285935206    8.53613483972495    1.95297243976223
C          -2.84353017087926    8.14989716656094    1.75473302236231
C          -3.18900903403386    7.13379210894011    2.72964863069043
C          -4.39961906350780    6.52861273886658    2.91170303892573
C          -5.53097569387767    6.87918672630810    2.15054606689825
N          -6.46139320388074    7.19886821716008    1.55942896686271
C          -4.59693294247690    5.53891372607071    3.89788532723356
N          -4.75072471637303    4.72758232809135    4.69306361677241
C          -3.45537711624948    8.84828674526496    0.70010773928139
C          -2.59623719110801    9.74039713151866    0.12135841262221
S          -1.01942340428914    9.74981946952740    0.86420313443458
C          -2.88825328751242   10.72429870018066   -0.97662330628560
C          -3.13117536636203   12.06796270617472   -0.35449272652288
N          -2.16523901566440   12.86504120101728    0.04525771620516
S          -2.81095229253661   14.19984741330767    0.70045390997014
N          -4.36343398698031   13.78374449544686    0.48137041828000
C          -4.41816166125375   12.60412655407612   -0.09730311762063
C          -5.69521022334800   11.90573748894860   -0.43434842508246
C          -5.40167416959160   10.88311930515560   -1.49280699193096
C          -4.11717243640560   10.33348977637982   -1.73131300566419
N          -4.12851107210601    9.43290851205118   -2.68954227318550
S          -5.63966002004809    9.27039183491264   -3.25413071979634
N          -6.32324253122292   10.36920818212199   -2.27721723100900
C          -6.24691052972016   11.18954713911026    0.76573674753004
C          -5.57900317037038   10.81888611766460    1.90006489056865
C          -6.40194715072405   10.08204349941580    2.76803493666069
C          -7.69502306419434    9.90932502043819    2.26116194615720
S          -7.89791801637690   10.63484137523773    0.73145749510094
C          -8.45193520390598    9.15462247337165    3.19880878948402
C          -7.62289546180767    8.84542781510632    4.29584205714257
C          -6.29621946153071    9.38577637354282    4.03732146074003
C          -5.16519889333437    9.21271926289442    4.78148749457119
C          -5.11297114518670    8.41527897236465    5.94539443543396
N          -5.01803932199056    7.74884615785988    6.87301076810592
C          -3.93000855573022    9.77176850285347    4.39744174658027
N          -2.91617269886399   10.20773011690291    4.08269079839881
C          -8.28634543044888    8.15807759488906    5.30559291472983
C          -9.62192258404922    7.94052869437241    4.99548593971007
S         -10.02608215841767    8.56131959856093    3.38863210187440
C         -10.68051260112690    7.33204792639402    5.70378538780847
C         -10.80637347689002    7.06792788474779    7.03804612293232
C         -11.96225906365813    6.41692655194590    7.63489829136629
C         -12.92749328837018    5.69668679536461    6.98049983027309
C         -14.01774825901170    5.07357606957025    7.62406592790875
N         -14.93073999500782    4.54919975626455    8.08156505179020
C         -12.96792405996489    5.44409770610147    5.59292666732081
N         -13.07002911409507    5.18337607065915    4.47886507811098
C         -11.88682959162472    6.60720955164653    9.07794807319869
C         -10.67021528730451    7.28059484525933    9.38043656445866
C          -9.93645452774967    7.56399525050710    8.13608243485361
O          -8.87169446266713    8.13838986699239    8.05087040713467
C         -10.31584794947006    7.59524568884289   10.66041730408115
C         -11.18488734649983    7.24967639797057   11.71901962760802
C         -12.41203191167447    6.58816478076643   11.42459551151823
C         -12.74831914688531    6.27047297908303   10.08861945549535
C         -13.27787908517557    6.26008247117933   12.48770240163426
C         -12.94767164779053    6.56660267947544   13.77969483562244
C         -11.73713469097751    7.21398931814071   14.06855768779779
C         -10.87429852625916    7.54791911709485   13.06014595385231
H           1.50347947890212    2.47875614447437    9.92774348787566
H          -2.00272079148272    0.96146111190759    6.71990385416122
H          -2.56299996275673   -0.86970918315366    8.20432847564884
H          -2.19252192655063   -2.12628305206456   10.29015786731071
H          -0.45584786876427   -1.40680561325359   11.88176911790370
H           0.92203067524916    0.57774055948674   11.40249891417074
H           1.45890360224909    6.18431590651645    6.16453804814964
H          -2.15158022050429    5.36893170978202    5.04804944603044
H          -4.46758435536773    8.69180021461666    0.37349568532266
H          -2.02505333834066   10.77517788560661   -1.64844802609693
H          -6.44048886156963   12.61967397013854   -0.80008338856261
H          -4.55525313284510   11.07594475840371    2.10249297836725
H          -7.84204453276880    7.83520087994388    6.22868361305054
H         -11.53626700394746    7.09978367760914    5.07975501793069
H          -9.38411647917192    8.10301561672764   10.86095211882581
H         -13.68676316730843    5.77422180821350    9.89925406747333
H         -14.20797896994390    5.76005562145107   12.26070813795665
H         -13.61778559457988    6.31137065386256   14.58689597793491
H         -11.49206793574811    7.44737929349608   15.09384339299759
H          -9.94106958174053    8.04725431811983   13.27569404127694
