105
 SCF done       -219.069764130126          0.000645216283
C           0.95982636945950    1.12365042061952    1.53509570276600
C          -0.28550728874268    1.14899401429929    0.96134479432702
C          -0.74786546766469    0.17883569449696    0.04740697956844
N          -1.17586424352967   -0.58697289202404   -0.69214574019294
C          -1.28058021025733    2.08944152821279    1.28811691081136
N          -2.12413268250503    2.82589542853838    1.54296779207886
C           1.92277801133233    0.03583295958488    1.39242532771644
C           2.84403235291427    0.09827377601506    2.47881619982514
C           3.84545166406111   -0.81800109949510    2.62418480356796
C           3.98003824180979   -1.84839206632292    1.66657103286965
C           3.07337374320926   -1.90526817228936    0.56844156778329
C           2.04088095272515   -0.94655548055324    0.44702730527604
C           3.22517235315543   -2.93265020835995   -0.38451471764323
C           4.22209263615998   -3.86171663205772   -0.25949284590068
C           5.11372384476688   -3.80532020992217    0.82207091641379
C           4.99490320593718   -2.82048827172627    1.76490800524414
C           2.52934599007963    1.26765781209249    3.31498723318590
O           3.05076662410965    1.61541784899453    4.34934643549096
C           1.45192483904501    1.99654812669604    2.57941743391491
C           1.19926382383168    3.28928276398550    2.92508877938860
C           0.54973591718409    4.30212603189244    2.18755314751515
C           0.28209539679940    4.36223362214045    0.82568375689225
C          -0.33618109183865    5.55020991302974    0.46496420849806
C          -0.53820483929346    6.42159141495778    1.55813150514769
S           0.04656070530856    5.77093800575495    3.01716217707808
C          -1.17349048713415    7.59481173545219    1.09049647942201
C          -1.38492309612718    7.46017488465100   -0.29988627482650
C          -0.87119989159653    6.17157949134059   -0.73391307046163
C          -0.89067322522305    5.64319147514367   -1.99130148370610
C          -1.43537289444354    6.33589881585337   -3.09306802812379
N          -1.86569876605994    6.90035458540819   -3.99340088694926
C          -0.35029588586615    4.36759677852213   -2.25934062549020
N           0.10180825361775    3.33338952788788   -2.46195945133660
C          -1.99568655782219    8.57192718221374   -0.85998316080314
C          -2.24133859840588    9.56320631730343    0.08498985202559
S          -1.71584834302526    9.09846661785311    1.69348671027257
C          -2.81602216716386   10.83909581935683   -0.15471313476549
C          -2.93282796758205   11.80323649542002    0.87081631902334
C          -3.45211204347920   13.11815037678292    0.63695417587692
N          -3.51770852238255   13.99164956903734    1.66111128840179
C          -3.11719715025441   13.63446898857233    2.83831097169646
C          -2.60412148744783   12.33123706977536    3.07018929178833
N          -2.52331028010437   11.46786777199259    2.11001381672308
F          -2.19193329913850   11.96143772802801    4.27737470464571
F          -3.20093287599903   14.52329173400711    3.82154886105590
C          -3.89959878992559   13.54388498539853   -0.63308560985350
C          -3.82289401414474   12.57078895055484   -1.65868369109140
C          -3.28749361762013   11.24809030113741   -1.42556102058515
N          -3.30746110884498   10.51265526355514   -2.53825192373259
S          -3.92586863624022   11.37199275211320   -3.73969376656393
N          -4.20189806085140   12.72475730728428   -2.92825997155562
C          -4.37457277484933   14.86418520080552   -0.85104917660014
C          -4.86517626705861   15.38453506240979   -2.04467832492098
C          -5.22180292563283   16.71904489523416   -1.92266110157481
C          -4.99546310879432   17.22719028556887   -0.62451790414612
S          -4.36113613060401   16.05044625236097    0.44117690923315
C          -5.37475154568374   18.58735931532396   -0.60956537166617
C          -5.85273088601285   18.94336156545041   -1.89323712629638
C          -5.75760170742502   17.78082967064413   -2.76092342542195
C          -6.07823537583769   17.70047766268009   -4.08351754425736
C          -6.54607769380357   18.80518908726096   -4.82851958590472
N          -6.90540061470084   19.68883168497009   -5.46390855654195
C          -5.93747026230638   16.50145492855621   -4.81548651969544
N          -5.83280022725608   15.53121376607151   -5.41747393098042
C          -6.27243919766985   20.26325747207813   -1.97313996247873
C          -6.11692614983230   20.93515791372031   -0.76616617236652
S          -5.41366128304237   19.89283111680271    0.47765920267251
C          -6.35332359281710   22.27691380752210   -0.40302143217162
C          -7.11738964087906   23.22417406516101   -1.02572861692731
C          -7.18802966203952   24.61602489101142   -0.61672914023928
C          -6.28409556211513   25.27650537222172    0.17529846761697
C          -6.38690904177643   26.64083433127458    0.51811768106579
N          -6.41915557392331   27.74251983337982    0.83930803476237
C          -5.11083669498853   24.70944896826702    0.71537175046245
N          -4.12827591580969   24.32294524457745    1.16763639271822
C          -8.33319694523820   25.22176724137348   -1.28296186452190
C          -8.90634858846522   24.25618843624674   -2.15805678298574
C          -8.15939754204540   22.99126002628487   -2.06087231493589
O          -8.40348533756151   21.96624745831289   -2.66044413397296
C          -9.99231126892551   24.53926032499365   -2.93504861851134
C         -10.56825433375884   25.82757175285559   -2.86822815299465
C         -10.00873668949188   26.79629929491761   -1.98547720915259
C          -8.88231896352842   26.47349274014649   -1.19415611249925
C         -10.59687350445104   28.07579069430684   -1.92137658986807
C         -11.68266465771362   28.38665266155849   -2.69406078058417
C         -12.23073772521256   27.43311665704246   -3.56489329588880
C         -11.68542362576124   26.18070440357225   -3.65011049078982
H           4.52837281615232   -0.75717124566570    3.45847240954702
H           1.37637605276916   -1.00411433958915   -0.40087972729290
H           2.53464845360033   -2.97354731469615   -1.21392785931487
H           4.32899254398888   -4.64596366346356   -0.99378151863535
H           5.89540461532667   -4.54557316872197    0.90441123785085
H           5.67857525904197   -2.77175304542526    2.59981994600939
H           1.62644137001649    3.59340649193617    3.87640558330748
H           0.57302625338630    3.59095081344374    0.13629382754907
H          -2.25805046452901    8.69395645338619   -1.89467842878562
H          -4.94150988456391   14.78862383764519   -2.93528223269983
H          -6.67471024915606   20.73074053510425   -2.85235035959265
H          -5.86780599784150   22.56965947523145    0.52120833573659
H         -10.40444867448292   23.78943535112545   -3.59383271101986
H          -8.48567193599018   27.22614775698564   -0.53138353730271
H         -10.17024607629546   28.80728820607541   -1.25085489135222
H         -12.12503242841299   29.36999263194580   -2.63872731271052
H         -13.08717306191789   27.69568889603844   -4.16768317639745
H         -12.10293890841093   25.44200139053227   -4.31848686728034
