136
 SCF done       -271.477578485956          0.000401442663
C           1.73937938296133    0.49271781993246    0.99890820707174
C           2.58946095541572    0.24847029444993   -0.04814537236436
C           3.21988704261447   -0.99270147119468   -0.28091065985079
N           3.76679769078726   -1.97087771272838   -0.52973039113790
C           2.97330605985559    1.17343942982967   -1.04177131154075
N           3.33919140442634    1.85732185486974   -1.88933706416820
C           1.36587114835820   -0.47860526711366    2.02152390693675
C           0.49335953648541    0.15319494591199    2.95297380031666
C          -0.02357625246304   -0.51048308595097    4.02791843157423
C           0.31211644688409   -1.86842993104214    4.22409744727676
C           1.18169778790308   -2.51078016022224    3.29600737765594
C           1.70348749112614   -1.79535337749402    2.19378634455592
C           1.50804185157630   -3.86715850832864    3.49889710573367
C           1.00122390540797   -4.55702690472918    4.56648283632893
C           0.14589725800893   -3.92312027928161    5.48007386429007
C          -0.19132518051292   -2.60734883644191    5.31256342467789
C           0.27812988085503    1.54968499638010    2.54746810006137
O          -0.40024037986791    2.37387706182664    3.12935638267200
C           1.05456388589025    1.73927181366939    1.30605712396486
C           1.11272659382328    2.88190558887665    0.56231923490432
C           0.47789157514716    4.13107513013404    0.74406861799671
C           0.66792920705636    5.16980525426205   -0.14777686001474
C          -0.04986954561582    6.33468152743418    0.16590748564863
C          -0.07017639505284    7.56279001760358   -0.53660978363507
C           0.79860370733671    7.79373235044541   -1.66957484919409
C           2.10850508358692    7.42792849943061   -1.81102560185208
C           2.65391554686955    7.82722482098331   -3.04897238013934
C           1.77902954540997    8.48860793518993   -3.86330350366423
S           0.24021355027211    8.63855236103621   -3.08836250852353
C           2.00758256447158    9.02623416224806   -5.22772918744468
Cl          4.28945294916139    7.50674154680751   -3.48169079337440
C          -0.95522455584537    8.52327515240588   -0.06522361804058
C          -1.75466726917929    8.34227504354431    1.09273278230266
C          -1.68116185154071    7.14461398482282    1.83099483897819
C          -0.84595387632544    6.15020184890955    1.32777546519100
S          -0.62382834231064    4.57376384367036    2.02999131377425
C          -2.42866897248923    6.97443554879903    3.05993333562207
C          -2.62626281770077    7.89001194966460    4.05598426408963
C          -3.40249752922279    7.37749084026952    5.11620577957840
C          -3.81204162877347    6.08627130887601    4.94258214975175
S          -3.21506797299369    5.46808777034553    3.44232628279639
C          -4.62393986451810    5.24232299212953    5.85535589862772
Cl         -3.79865195588360    8.31395814718434    6.50600232216807
C          -2.57201160837291    9.47012337539138    1.34680956168710
C          -2.39622477419197   10.48648379752256    0.45317755320326
S          -1.21175046739532   10.08967116683925   -0.77360953139855
C          -3.04229726916766   11.78104516415640    0.45415151149461
C          -3.52623626750173   12.37269708505742    1.62873922891972
F          -3.40108517793785   11.73291148821500    2.80073029054809
C          -4.11415901914842   13.62540011777818    1.64239767405911
F          -4.54921594431260   14.08828400615279    2.82268748198452
C          -4.26934214669102   14.39508283961227    0.48020943318011
C          -3.80107399116565   13.79420293390943   -0.69636848614791
C          -3.20524869971460   12.54512521434031   -0.70810894488858
F          -2.78998586833630   12.06380519747255   -1.88681536683596
F          -3.90178770961208   14.44256128167865   -1.86430715437994
C          -4.85870841726646   15.71621875140951    0.49492112782109
C          -4.95540689204264   16.56846901389830    1.55792881850728
C          -5.57573093452491   17.80097155529131    1.24487314161476
C          -5.77095490264210   18.90843863567612    2.09667199340522
C          -5.42059846207072   18.88639124626310    3.50213952450889
C          -4.87605416257955   19.89611426317876    4.24465646443666
C          -4.71659255306354   19.54810243309739    5.60224272662921
C          -5.14358555990302   18.29013046064619    5.91771948572399
S          -5.75358479642429   17.50057406056886    4.50631633187686
C          -5.14152172787698   17.61425042808614    7.23945910521097
Cl         -4.03471139815742   20.62747632369907    6.75701685078612
C          -6.33949901711528   20.03797580505231    1.51726561719131
C          -6.73181357589065   20.09974046716937    0.15435711960638
C          -6.52065671906483   18.99675429064982   -0.70175566559428
C          -5.95537859071545   17.86639309868875   -0.11914000045938
S          -5.54040861588736   16.40583088377077   -0.96157487905295
C          -6.83923503701114   19.07284930201570   -2.10959165575647
C          -6.69369488014066   20.14204546376958   -2.95122335446097
C          -7.10021861788379   19.84916501937231   -4.26898060035785
C          -7.55591427262921   18.57454858017971   -4.45459745682989
S          -7.47987550797904   17.69555905771645   -2.96797152048569
C          -8.07295890692218   17.94685962815532   -5.69639478373818
Cl         -7.02288877203388   21.01162009121208   -5.53494211131258
C          -7.33914289547022   21.33171222091808   -0.16700497296915
C          -7.37309074915875   22.22099785009670    0.87457438016012
S          -6.71352995285762   21.52022161705979    2.34610521873368
C          -7.85787868110577   23.55228413142212    0.92166213009584
C          -7.93034207720682   24.43945228335382   -0.11115311144075
C          -8.47226868236054   25.78522862413126   -0.00991066346250
C          -9.34303230147090   26.23415403689716    0.94710623553633
C          -9.85919039125464   27.54627601821480    0.98739596458285
N         -10.30331465081384   28.60116068130718    1.07531819359242
C          -9.87592654173338   25.44303761755924    1.98723569777879
N         -10.36824178583967   24.85547753188322    2.84198025137281
C          -7.99876088593620   26.54603447176345   -1.15788259000922
C          -7.26587988584482   25.66871430135745   -2.00656496156775
C          -7.23667631169599   24.31864683014796   -1.42187738685157
O          -6.69751482631145   23.34424015231840   -1.90308021253502
C          -6.70195864672847   26.09593052868815   -3.17422421036841
C          -6.84335652096909   27.44996434598432   -3.55080439686102
C          -7.56533506558759   28.33779605036845   -2.70144403871040
C          -8.14215369517267   27.86455303625676   -1.50035001889779
C          -7.69077997778078   29.68905392512199   -3.08292025601211
C          -7.13278885951087   30.14268585181903   -4.24718210209010
C          -6.42469942191724   29.26700322868612   -5.08373151675118
C          -6.28382100452173   27.94896829885182   -4.74337449787658
H          -0.68243348533963   -0.00502937842271    4.71830839664391
H           2.35831354615013   -2.31283292978683    1.51123720364704
H           2.16715497865102   -4.35090999532031    2.79305762958850
H           1.25679614274486   -5.59573381091772    4.71287926503448
H          -0.24454403423208   -4.48257139270871    6.31696983988773
H          -0.84962067065904   -2.11371141488515    6.01245398768617
H           1.73232412197355    2.85727117566754   -0.32625947262817
H           1.28932587307330    5.06836304373385   -1.01946486885356
H           2.68308501381749    6.93746963760016   -1.04729877238286
H           3.07535619932307    9.10067218841562   -5.41958844649225
H           1.55221330084471   10.00886455549521   -5.33271909734634
H           1.56637894364486    8.36839954912377   -5.97739758495665
H          -2.20307252856059    8.87743753369421    4.06403623847996
H          -3.97860216428746    4.58330203907961    6.43756824001760
H          -5.31577886815646    4.62226673805135    5.28939433606994
H          -5.18268226118284    5.87305416630695    6.54305477890727
H          -3.29355685404921    9.49609281986858    2.14069258620815
H          -4.56424486215791   16.34603853763325    2.53148143723768
H          -4.56123499487640   20.84084392539573    3.84250630816903
H          -4.39877459460142   18.07461029160762    7.88724755484017
H          -4.91807222839155   16.55555309209805    7.12754363999303
H          -6.11782956927581   17.70590833361482    7.71742430052701
H          -6.28165549186739   21.09243174928930   -2.66541074504605
H          -9.16378920797010   17.95799727448677   -5.70617883499171
H          -7.74513558591094   16.91199271376229   -5.76646049760139
H          -7.71652026489586   18.49865384992797   -6.56335291632973
H          -7.78964198754824   21.53547868958974   -1.11764187261653
H          -8.13250475745760   23.89982746059782    1.91088485957615
H          -6.15461248581822   25.40889732224296   -3.80252866279317
H          -8.67743736346102   28.56187423817495   -0.87552678135162
H          -8.23851087871240   30.35922560432653   -2.43677655613129
H          -7.23432744170901   31.17963347343728   -4.53022321734100
H          -5.99095880619261   29.64196411107222   -5.99865691242970
H          -5.73961931984082   27.26967833831541   -5.38311826893514
