134
 SCF done       -260.640485821613          0.000494257543
C           3.11949898901879    3.31037423335328    7.08138528956187
C           2.82418272514666    1.99364738737408    6.84654039461129
C           3.32402219887816    0.92575390882656    7.62237447384826
N           3.69027658670021    0.01301459266090    8.21447033864282
C           2.03441116939807    1.49522144686894    5.78773527827710
N           1.43244798594311    0.99908150483285    4.94469975019958
C           4.03205501053966    3.79421770915951    8.10891366629740
C           4.23858857511340    5.18684139587851    7.90448198917060
C           5.05940787017303    5.92178306946092    8.71063880918313
C           5.71835179336457    5.28522553671777    9.78568414491108
C           5.51119726884585    3.89220234333213   10.00204612043653
C           4.65912382131147    3.15675030487759    9.14683072416511
C           6.17046635325066    3.26715736771126   11.08009236132609
C           6.99500948512342    3.98175485842897   11.90568621916999
C           7.19785023684858    5.35340972845876   11.69207247061568
C           6.57366703340379    5.99103231265092   10.65449692978264
C           3.45002610857169    5.64193509496112    6.74679432910171
O           3.46963486929704    6.76054840759040    6.27658087600084
C           2.65804010262230    4.46105061983479    6.31367248248988
C           1.58732312501736    4.40907587620469    5.46897284673770
C           0.99051381414944    5.39742551616646    4.65088470621200
C           1.36881286904058    6.67368590764469    4.31722650874607
C           0.48191356240266    7.31877177325572    3.43213166582236
C           0.61619039844575    8.60707543463585    2.86550009351624
C           1.67984221399560    9.51062546748693    3.24616769598088
C           2.37158685140933   10.37981784221733    2.44784234283448
C           3.30778146148416   11.14821025089273    3.16842532276064
C           3.33361331950663   10.89506603417707    4.51117386822244
S           2.18428250904170    9.66913677394548    4.90661742412041
C           4.18079768588598   11.51922557163612    5.55814471762254
Cl          4.32803008698831   12.30695112723522    2.40707802638685
C          -0.34526345244256    8.97477390778209    1.93021749782063
C          -1.43834804906336    8.14259420714930    1.56978440687736
C          -1.57910665844651    6.86011706481680    2.13969005855603
C          -0.60754042555690    6.48422957774948    3.06200777017892
S          -0.51109745425607    4.94117165581579    3.84925324287781
C          -2.65000262801086    5.95539351427498    1.77636910086243
C          -3.33324893880354    5.09616034053914    2.58919598374279
C          -4.27134088443594    4.30904334629373    1.88761821458113
C          -4.30968328654377    4.53896559874534    0.54279048801325
S          -3.16887390463100    5.76962041523502    0.12128472176863
C          -5.15429143532690    3.88917525928517   -0.49023889458525
Cl         -5.27686066949647    3.15771162315970    2.67858531187910
C          -2.30737504984856    8.78641517646790    0.66131421945734
C          -1.89448436031458   10.04205647344444    0.31290307263128
S          -0.41061711824596   10.50816529264588    1.10015007970443
C          -2.52102275318699   10.92797238227426   -0.60032733326707
N          -2.02105918657051   12.06152144513251   -0.98612095294076
C          -2.82025836953659   12.65767855149129   -1.87020052287510
C          -4.00825625607253   11.98119762143310   -2.19639503921410
S          -4.09478639020446   10.50294885996059   -1.32739164884386
N          -4.80183912367155   12.57039202696668   -3.08957764033665
C          -4.28851324106449   13.69006069604143   -3.49831736502723
S          -2.71984063052563   14.12102795324121   -2.76419757192690
C          -4.88073646996763   14.52916063513774   -4.47574366805116
C          -4.34607557051511   15.65169752920521   -5.04278885764191
C          -5.17692334435935   16.23518077026543   -6.02569290618469
C          -4.90885990015514   17.35855736257027   -6.83406751613092
C          -3.64917848359672   18.07198187915924   -6.79021223684979
C          -3.43966207660225   19.41475353563841   -6.93116214689080
C          -2.07240523074835   19.76166322477486   -6.89927926566249
C          -1.22192017406286   18.70464620976056   -6.75051007042304
S          -2.12581564589114   17.23419343049500   -6.63339788290009
C           0.26095466483107   18.70250418967315   -6.68440471422924
Cl         -1.53701356093435   21.39049241409698   -7.03913017949739
C          -5.91190083599283   17.74226354122092   -7.72246392305836
C          -7.14038607049406   17.03936444821435   -7.84730815867327
C          -7.40112577913457   15.89642770125504   -7.05419576152244
C          -6.40692819652316   15.53342078846997   -6.15453260411103
S          -6.46365331882879   14.14477175626595   -5.09846963413748
C          -8.61653690437999   15.12095628688804   -7.17782314535348
C          -9.32985201953317   14.51868090629998   -6.17947930931058
C         -10.44255300339644   13.79769871675231   -6.66095809435692
C         -10.58885710110243   13.82137073774873   -8.01840604061453
S          -9.32996301697504   14.76946944901697   -8.73042409940697
C         -11.63099019076362   13.17663506016003   -8.85530127946475
Cl        -11.51776500973802   12.96097132619301   -5.60940765824161
C          -7.96797525312848   17.63353067858507   -8.81274769369458
C          -7.40449930052012   18.72171992933728   -9.45143065037872
S          -5.80370420872531   19.07153714796345   -8.83978405463821
C          -8.09846483083039   19.41682145327171  -10.46655140734015
C          -7.71301755284415   20.47019973567533  -11.24387537175613
C          -8.51255754570034   21.08753770963069  -12.29061742316214
C          -9.80394307591168   20.78429503514747  -12.63623985668028
C         -10.52171298749501   21.43875947809904  -13.66015137912126
N         -11.16478904694913   21.92650931914445  -14.47658409180124
C         -10.61581200761533   19.79815901433778  -12.03769842696962
N         -11.34654051109220   19.02135125755754  -11.61020556251692
C          -7.69328391126887   22.11699028391904  -12.92101707983906
C          -6.43088890080491   22.16148805567261  -12.26295992112071
C          -6.40612984306873   21.15515972833365  -11.19191382122923
O          -5.48839791746731   20.93919527220647  -10.42414021403669
C          -5.44707722796438   23.02982982999118  -12.63904176266152
C          -5.68307721582466   23.91070704740356  -13.71786650722158
C          -6.94181558912690   23.87232313595403  -14.38448921538976
C          -7.94235688185663   22.96396200892718  -13.96881023728482
C          -7.16582210079737   24.75234787123506  -15.46275063982683
C          -6.19436297121987   25.62815844631062  -15.86496731598364
C          -4.95554443064055   25.66511430469130  -15.20767773524309
C          -4.70544858380053   24.82501406914829  -14.15655459123933
H           5.20115230279500    6.97731203578033    8.53156687264644
H           4.51884414492096    2.10554389894861    9.34144551557255
H           6.01192305339066    2.21070337784693   11.23943625897985
H           7.49577324631981    3.49386017356854   12.72840698648192
H           7.85104155810867    5.90210629260914   12.35400519769796
H           6.72625342649431    7.04699173408249   10.48523835730431
H           1.06698804427350    3.45905152726155    5.41931029860800
H           2.27296064211540    7.11396155980861    4.69233385591206
H           2.25507720382882   10.44683143990696    1.38245988568375
H           4.97475764474384   12.09807354168879    5.09252009887243
H           4.61895743312165   10.75413756261981    6.19644666022848
H           3.58742639766452   12.18353497792924    6.18712475053202
H          -3.20731622397922    5.04302739765818    3.65441961941558
H          -5.88068180378818    3.23738337947896   -0.01142067768646
H          -4.54138927098075    3.29413011993711   -1.16743873020085
H          -5.67993273202285    4.63622509315513   -1.08318118791217
H          -3.21079568791038    8.35165722728235    0.27536760982028
H          -3.38462531521195   16.03560958744074   -4.75564564297671
H          -4.22252447662017   20.14362027811699   -7.02334469969407
H           0.62751066092889   19.72594390509916   -6.67836141655387
H           0.68305274702185   18.18219235027767   -7.54417262959146
H           0.60446181227944   18.19473630032884   -5.78417553386925
H          -9.10203333371120   14.61183984105990   -5.13432531319682
H         -12.34682331519828   12.66413621278783   -8.21764010460405
H         -11.18335220574676   12.45376691352797   -9.53693855291539
H         -12.15598713858019   13.92011186582923   -9.45393200388938
H          -8.95938335469321   17.29171101406387   -9.04848061129596
H          -9.08709977917588   19.01097492243771  -10.64448095263365
H          -4.49938874311789   23.04166395419967  -12.12133712201536
H          -8.88247619254380   22.96075384978769  -14.49670677262295
H          -8.12129716562621   24.72028599385079  -15.96550090261827
H          -6.37533378115006   26.29752327805534  -16.69253996922719
H          -4.20034721682128   26.36227488293463  -15.53853150371867
H          -3.75345946518996   24.84869834648089  -13.64664251578463
