97
 SCF done       -180.882990093142          0.000727056139
C          -7.71083905819209   -0.06865361803815   -0.80470191179537
C          -6.83295451327421    0.06368510936165    0.24367778680986
C          -6.12990175028527   -1.01146443901106    0.81938676532538
N          -5.49175120800828   -1.84013643066440    1.29456231105684
C          -6.60589716694118    1.26393062300852    0.94550457921833
N          -6.43628401571831    2.18416548095323    1.61070970549640
C          -8.23617758070176   -1.33263365102281   -1.31161074930014
C          -9.36683853527711   -1.05764996914423   -2.13530426940692
C         -10.10120887398962   -2.05562268528718   -2.70638331845026
C          -9.72898519486298   -3.40080467800485   -2.48245729073548
C          -8.59144740717152   -3.68323838362251   -1.67313840296554
C          -7.85124402996181   -2.62792903597190   -1.09134730537776
C          -8.23013401553288   -5.02843562787775   -1.45679240427670
C          -8.95936028542299   -6.04703723143676   -2.00724509216409
C         -10.08042858099767   -5.76773052276734   -2.80252451547220
C         -10.45609134880964   -4.47253555406732   -3.03597412849058
C          -9.55386831179131    0.40179584673650   -2.22904927216257
O         -10.42349079140309    1.00387295484947   -2.81923162714066
C          -8.40822038997220    0.99778490810415   -1.48735087353774
C          -8.17108937935534    2.33327273057116   -1.61275487805057
C          -7.04207815285305    3.12812132360760   -1.24483348043226
C          -7.28746504923073    4.41741947383390   -0.77924576893810
C          -6.28782326212418    5.22706238620306   -0.27655945323683
C          -4.94710195437140    4.83081939129330   -0.23067418111695
C          -4.62537285870420    3.50922313054305   -0.69416204450661
C          -3.39864178590142    2.85139241213997   -0.59458223589162
Si         -3.47429790869769    1.57786943991681   -1.88081162254356
C          -5.27725951047754    1.42507279544923   -1.74103592517894
C          -5.68937082246142    2.67455479889321   -1.27146198404572
C          -3.98615382879686    5.76720001157503    0.25964629188748
C          -4.22706517599776    7.01565159776812    0.86658923890721
C          -3.02898231369713    7.75421058792854    1.20660754644774
N          -3.12446539080911    8.94953604684825    1.78672634607479
C          -4.31919247524050    9.42660628245119    2.06541370321214
C          -4.38360035884084   10.71758937222268    2.78184644457341
O          -3.39303173310989   11.28946360801332    3.19927892473586
C          -5.74337240810362   11.23679921322707    2.99377639812283
C          -6.85217609922780   10.58238571089620    2.62851784373755
C          -6.84520284608985    9.27234811495905    1.95586731421378
O          -7.86623899743793    8.71690639249159    1.60334051045428
C          -5.49729692458212    8.70652625595097    1.71637837144341
N          -5.42835326797154    7.53158662807245    1.13194470212679
C          -1.84080207718215    7.11287995893471    0.82463312175954
S          -2.26808283303534    5.57945308242390    0.10626932868879
C          -0.45208286807024    7.43377115846945    0.89406784107776
C           0.39526198405626    6.75578204668436   -0.00324384539879
C           1.76719784490490    6.78808126024770    0.07982430973276
C           2.41010900004331    7.52194665587973    1.08567379839584
C           1.62817619065633    8.47250499038105    1.79212465788978
C           2.16098769938014    9.59532414339973    2.43401844274488
Si          0.89436701107229    9.89511125791688    3.68625202050936
C          -0.45539765372243    9.28159941226746    2.64147144345025
C           0.16041151360330    8.37173159959173    1.78896659578796
C           3.77921460502972    7.26266753299509    1.35471023898339
C           4.41318111773482    7.30466489091972    2.57131137239673
C           5.83067001063342    7.06234963044208    2.76826161347868
C           6.79876565279910    7.03811737090457    1.79657445525824
C           8.16876005522883    6.82459145633728    2.05323898074646
N           9.29594649209519    6.65282258550607    2.19015735523958
C           6.58458775093754    7.24855717246686    0.41870794167694
N           6.50612677580078    7.42498535348530   -0.71392520016755
C           6.07037338231879    6.92996632261254    4.20032016837510
C           4.83746355366875    7.13795795005749    4.88065176625233
C           3.76812551458638    7.38421610520600    3.89829506799173
O           2.58588697972547    7.55040075294720    4.16154674082432
C           4.74591124902937    7.07548753489236    6.24080492056790
C           5.90664463441300    6.79665277001196    6.99809511033158
C           7.14256706510588    6.58161216843474    6.32402431437118
C           7.20596273180125    6.65335366057073    4.91255767435383
C           8.29201907127758    6.29552691642537    7.08717398885433
C           8.22680290407789    6.22561375769938    8.45256316857255
C           7.00972094599769    6.43852749300540    9.11563459162286
C           5.87442457953231    6.71872194210131    8.40380270850394
H         -10.95981395110364   -1.82302726403605   -3.31871809913199
H          -6.99324538258442   -2.87240390481142   -0.48502117067293
H          -7.36783771128161   -5.23865121469111   -0.84096622633096
H          -8.67685039540853   -7.07431767391052   -1.83145821399029
H         -10.64524787161374   -6.58344525173650   -3.22854242907913
H         -11.31874395365829   -4.25111670364470   -3.64737976932299
H          -8.99264785138975    2.88028542831525   -2.06887211020680
H          -8.30584956983103    4.77526386340196   -0.74830363648441
H          -6.55563877573659    6.19760802669461    0.10626392193152
H          -2.52588216055437    3.32554798716154   -0.18608723840368
H          -5.94984646214112    0.82102454180046   -2.32981440879491
H          -5.79625785375942   12.19807454420543    3.48711858924176
H          -7.83427953945070   10.99689331699159    2.81214658090299
H          -0.05595706723476    6.15203140866760   -0.77844336135128
H           2.35681143612536    6.18167546393739   -0.59223957628604
H           3.23117100863720    9.71712325004125    2.48872925219380
H          -1.52360143158842    9.32027526386626    2.76764762186094
H           4.34514513163840    6.86884859918015    0.51827217905058
H           3.79874454130289    7.23475153006005    6.73469181173111
H           8.15506362507040    6.47893378991550    4.43143779369305
H           9.22703252233850    6.13285053811898    6.57137832755401
H           9.11324453162571    6.00548439267326    9.02840060404605
H           6.97517396773689    6.37871984599005   10.19323870937472
H           4.93410788884734    6.88223048602071    8.90992410541588
