137
 SCF done       -266.915131709780          0.000594143883
C           3.39787923728228    3.13469888121409   -0.06369515086400
C           3.77758986656510    4.22816546110586    0.67058057103655
C           4.06120733121646    4.18729758486235    2.04853489264296
N           4.25628987533999    4.20815279756937    3.18026098344714
C           3.98031760850960    5.50278585506939    0.10244830903695
N           4.20207543664358    6.53930355889415   -0.33682742346157
C           3.46427517667048    1.74920558853129    0.38839721737602
C           3.50093959518665    0.90170555318995   -0.75786934900493
C           3.61524902822613   -0.45356286351176   -0.64374603193357
C           3.68447991983423   -1.03360790002390    0.64313604105253
C           3.62466923116622   -0.19376149139391    1.79280693407501
C           3.51652485049085    1.20825384559864    1.64450010949340
C           3.68309503632294   -0.78682174822153    3.07025266528706
C           3.80137400603489   -2.14301693068999    3.20800509178092
C           3.86460788790362   -2.96862695309593    2.07563514033247
C           3.80702182956799   -2.42572360475879    0.82072053972570
C           3.37903879289346    1.72270151484803   -1.97597673672685
O           3.41942289943527    1.36143782922265   -3.12882968663055
C           3.12204196489773    3.10936220781363   -1.48549594137032
C           2.58046746961799    4.01709106447050   -2.33968361096897
C           1.89765598496276    5.22385044540739   -2.04286352114488
C           1.32153532969720    5.62711323503319   -0.86531488392817
C           0.66610429146082    6.87208944419194   -0.94284034391911
C           0.04067639273518    7.58379430478765    0.10540380012790
C           0.09499178821234    7.13753365047399    1.48029720428139
C          -0.86274166409556    7.24989453410175    2.45005943029992
C          -0.43333278501731    6.75653093406186    3.69889947573012
C           0.84677494185205    6.27800727151703    3.71290234842953
S           1.54713100414840    6.42762806998340    2.14210259641471
C           1.60885848515680    5.70778341823536    4.85185079895183
Cl         -1.44049930664432    6.75460214038283    5.09388115862851
C          -0.59458559821565    8.76760019916582   -0.25345836913673
C          -0.59738804911077    9.27950735501225   -1.57633690552916
C           0.09963243002462    8.61168461079559   -2.60375828205909
C           0.69887157079297    7.40447213777907   -2.25810403157768
S           1.59522200953232    6.37251612293929   -3.33051360633925
C           0.22104947355980    9.15684589437287   -3.93960018625158
C           0.22253077653418    8.48389947600260   -5.12857327608104
C           0.43357102175408    9.33297512272364   -6.23560485905440
C           0.60878295166780   10.64815191900407   -5.91478581326550
S           0.49859767846128   10.85842059750535   -4.20150997186242
C           0.87001074950090   11.79897860174608   -6.81562969244731
Cl          0.46470749279304    8.74317748711202   -7.85266840422509
C          -1.35978009828747   10.46609938025209   -1.68003910678343
C          -1.87998021587166   10.89328436245309   -0.49378922446024
S          -1.45062814891583    9.82839304894357    0.82909859188390
C          -2.71182978686740   12.04265649097073   -0.26786678610499
C          -2.93454874583394   12.55872761305054    0.99513030178141
C          -3.74765618819691   13.67192840623771    1.20821789839568
F          -3.87175214429413   14.08723400531193    2.48275303948915
C          -4.44257731247826   14.34007429104195    0.21123250195209
C          -4.24113843337584   13.82225320962461   -1.09688202002637
C          -3.36863960047969   12.70230173175037   -1.34132456514937
N          -3.30938540309131   12.39601254781986   -2.63580943245240
S          -4.24278945542264   13.40964364962854   -3.46002267294310
N          -4.77448208415915   14.28653299190415   -2.22550624649402
C          -5.30981584221713   15.46555695130892    0.43944592070971
C          -6.31681696668806   15.88133731836123   -0.38344673298204
C          -7.00228527352929   17.02449682252820    0.08398258239947
C          -8.06635527702515   17.70518032583336   -0.53909080941541
C          -8.70343292695037   17.21794003091482   -1.74485341980219
C          -9.20127755061319   17.94574102589958   -2.78793099598270
C          -9.82077546259660   17.14206778481246   -3.76843452467555
C          -9.82068805840316   15.80624335905461   -3.49020286520856
S          -9.02299628088559   15.51900490218205   -1.98185334595745
C         -10.39272554446429   14.68890978120213   -4.28335552581824
Cl        -10.51606152549326   17.80745308975404   -5.19483618039681
C          -8.50453371995405   18.87450293667303    0.07756551775280
C          -7.93030907072778   19.37533465692849    1.27701811520167
C          -6.86670817102587   18.68559909041609    1.91033833805109
C          -6.44914982796893   17.50982419681865    1.29889098194000
S          -5.15751704449586   16.48233906755952    1.85426804188980
C          -6.21971297690909   19.18145661131903    3.10501082273283
C          -5.71331824868460   18.46362518808997    4.15256837715233
C          -5.08430658897154   19.27684703989145    5.11857927447891
C          -5.08335375601389   20.61030692336145    4.82397977931327
S          -5.89106647716145   20.88236964993541    3.31984102036034
C          -4.50754434779416   21.73740366022075    5.59898783238581
Cl         -4.37796926212540   18.62629899166447    6.54713289953096
C          -8.59544680107972   20.53299353414928    1.70900077563775
C          -9.63473580068992   20.93262850897899    0.88875762565238
S          -9.83210605042921   19.85343299851463   -0.47359430742728
C         -10.38335931281441   22.09752701550243    1.16223960431289
C         -11.43564941210393   22.65312063435092    0.49137354425526
C         -12.11734298031002   23.88472811907698    0.85534354145184
C         -11.76730902338797   24.76433669439616    1.84722453094664
C         -12.46565466049234   25.95878442195989    2.12408117763138
N         -12.98679362028697   26.94280334513648    2.40403487339019
C         -10.66706856182139   24.63633913444364    2.72043158050455
N          -9.79583488324722   24.61535420394743    3.46923081071270
C         -13.24264945927015   24.05338559789761   -0.05855643875747
C         -13.23449868500477   22.97796432500222   -0.99182927096423
C         -12.10301065411543   22.08716404963298   -0.69674061227343
O         -11.79595688234048   21.08539879880022   -1.31384484435932
C         -14.17217261618768   22.86346935365979   -1.97681228259559
C         -15.18685956627408   23.84109733718619   -2.07619733374655
C         -15.20576676367041   24.92030686930000   -1.14622660911944
C         -14.21933004668032   25.01104124031175   -0.13692505419973
C         -16.22333036860433   25.88997290823674   -1.25398931638572
C         -17.17624604881314   25.79952672370620   -2.23198876159482
C         -17.15662730602525   24.73594423880316   -3.14646217717348
C         -16.18276682076208   23.77742523496849   -3.07023178023479
H           3.65232683683107   -1.07717870426741   -1.52453475233837
H           3.46683765848314    1.82154821604642    2.53084617004880
H           3.63771398283969   -0.14688444312685    3.93925296561158
H           3.84791067560752   -2.58732394539393    4.19093693384369
H           3.95865461665138   -4.03669660381514    2.20253354988183
H           3.85436521963924   -3.05643248571739   -0.05491216934839
H           2.61258976330069    3.73662850336145   -3.38806234605835
H           1.31306986692061    5.01314696769229    0.01597678120300
H          -1.85213718518063    7.63214409700663    2.28182232777776
H           1.90814158214223    6.49955009676128    5.53969124297948
H           2.50403379980861    5.20118841465221    4.49829798257255
H           0.98645734460855    5.00433946716227    5.40340153550112
H           0.04430187916715    7.42955310509833   -5.22762553215247
H           0.72220461196968   11.49641391800563   -7.84935909069014
H           1.89515088562537   12.15139602013962   -6.69848901586901
H           0.20235170371717   12.62733507531750   -6.58483728854686
H          -1.54185438899059   10.98983945770462   -2.59865922325501
H          -2.46673396282161   12.10406455693471    1.85524696837114
H          -6.53958685795446   15.38041878671020   -1.30520875156611
H          -9.11103529929476   19.01157562664532   -2.87994922849185
H         -10.70931851722319   15.05623300069631   -5.25641045751278
H         -11.25555301271068   14.25946438761546   -3.77365375430126
H          -9.65670778415745   13.89827523842359   -4.42059749697340
H          -5.81109321494384   17.39960652520436    4.26116094948465
H          -4.17604333956498   21.38202989337658    6.57142903416417
H          -5.24702334425636   22.52461438962319    5.73757134764023
H          -3.65488966016393   22.16802837885783    5.07340687806196
H          -8.34647322663936   21.07297729297866    2.60434472262626
H         -10.04259423814378   22.61137912820012    2.05319048322357
H         -14.13978168734645   22.03628250600983   -2.67031702732216
H         -14.26618373695725   25.83919060610692    0.55194471462120
H         -16.23453000502142   26.70747528468926   -0.54810780562547
H         -17.95112811769439   26.54772325689584   -2.30625469899297
H         -17.91661750126433   24.67988759038645   -3.91143232387272
H         -16.16173521810509   22.95583274906750   -3.77126951332528
