97
 SCF done       -200.205321264396          0.000785851652
C           3.18072683976523    0.73991066993813    0.11960220574642
C           2.48519306523319    0.04421282367876   -0.83564937121342
C           3.04802607682968   -0.97488519013166   -1.63312523308906
N           3.43916891001974   -1.80939206543969   -2.31787947533197
C           1.11654057151928    0.19230624699558   -1.14584118289131
N           0.01028780961433    0.22530649351874   -1.45401867410754
C           4.56773029448941    0.48740624614961    0.49105481765339
C           4.87953890117531    1.28258190342090    1.62880334425900
C           6.11020854811701    1.25068871941465    2.21855612090939
C           7.10956668057192    0.40934040584492    1.68073199942832
C           6.80927670255199   -0.38277598524111    0.53525522610396
C           5.52332807950266   -0.33153571737538   -0.05009571530824
C           7.81503419259637   -1.21466671939067    0.00255368338167
C           9.05756910412269   -1.26448092397659    0.57347186910063
C           9.35173447614154   -0.48505609815288    1.70217423891950
C           8.39849129957650    0.33391454139963    2.24403324644574
C           3.70565084201557    2.08762723703944    2.00740838126255
O           3.63906375062636    2.83573967956889    2.96102705920631
C           2.66958420530722    1.79227893735579    0.98591275629072
C           1.48006426385688    2.43198429138743    0.76824596047077
C           0.82042072309652    3.45277514414395    1.48173421414104
C           1.06972503081487    4.08605046997401    2.68754215760102
C           0.11301464480486    5.04150304564914    3.00416375073149
Cl          0.18400586280524    5.96850743426240    4.44012908181769
C          -0.90975462585077    5.18531679452639    2.06041121251883
S          -0.64568298482061    4.07542260771986    0.75416259132167
C          -2.00769754894634    6.07124755480658    2.09323558726855
C          -3.00816149969332    6.21894682356605    1.13380671993753
Cl         -3.07904623918808    5.29709413024067   -0.30976896814159
C          -3.95398601732844    7.18810816323012    1.44379434346246
C          -3.70796840389635    7.80993221812361    2.65500104949044
S          -2.28448527258757    7.18180091248849    3.42048364435082
C          -4.46596818219846    8.84394994021831    3.26184181206148
C          -4.07881027211439    9.36486035462990    4.51976933788041
C          -4.78153889483928   10.41817411714225    5.19296007103673
N          -4.33157243727586   10.84131143037582    6.39140950131027
C          -3.26958021496700   10.28413140204241    6.90307618153545
C          -2.57531913367893    9.25265256224830    6.23895269990195
N          -2.98572341957829    8.81960370631158    5.08137258807565
C          -5.92903624189791   11.01563020341743    4.60942982584199
C          -6.31737467069068   10.49181860425223    3.35815717243049
C          -5.61365291261419    9.42577886143946    2.68712459687797
N          -6.18727459548143    9.12012841606394    1.52045071884430
S          -7.46336875347685   10.06248877422267    1.29247299926266
N          -7.36703498900127   10.91139080746692    2.64952286065930
C          -6.66862010333275   12.08263038106275    5.19035329681815
C          -6.46774825618815   12.71853013245684    6.40259482842352
C          -7.37872746886184   13.74155053705880    6.63543332305981
Cl         -7.35179708261825   14.69035308806449    8.06180731614914
C          -8.30689230541130   13.92835934943089    5.61131365845508
S          -8.02011029411423   12.77097360042567    4.33906000562655
C          -9.33476422359184   14.89414510901724    5.53866159460963
C         -10.25928004706560   15.09452086105913    4.50853898889877
Cl        -10.30462295820830   14.11705493112958    3.10370899890859
C         -11.13964943384118   16.14916190709113    4.71323314057347
C         -10.92625751891497   16.80464617558180    5.91367990855246
S          -9.60401988677261   16.06231478901683    6.79039744900411
C         -11.55284121513419   17.89746142744647    6.54618423071883
C         -12.52907441790072   18.75638276846040    6.12138889571082
C         -13.05378848244979   19.83909842689784    6.94137181514885
C         -12.88035971443323   20.01468927010981    8.29014672791705
C         -13.43558388532598   21.08572364185060    9.02238493520999
N         -13.84870709481293   21.93231561073588    9.67884692831596
C         -12.17480861636896   19.15768778905437    9.16144205986884
N         -11.64081735073514   18.51551257402908    9.95059029963280
C         -13.87295356128562   20.69155308616473    6.08816612325894
C         -13.94199881337476   20.10008110399303    4.79615702169722
C         -13.15008284849154   18.85869110990725    4.77659795658888
O         -13.04341991076573   18.10333406809137    3.83246715125667
C         -14.65362629057486   20.66605756346058    3.77792747764469
C         -15.33834182525579   21.88000282928197    4.00857512597642
C         -15.26691259312704   22.48458025663349    5.29668087834353
C         -14.52477393268985   21.87156512136661    6.33226124277102
C         -15.94941412956497   23.69859522524318    5.51542054737683
C         -16.66986929241050   24.28744198785658    4.51206707879124
C         -16.74037872521819   23.69058528056409    3.24442976399310
C         -16.08879195854399   22.51254468387938    2.99805107123722
H           6.31880730091763    1.86181264436356    3.08420560866949
H           5.33078733183866   -0.94040628723088   -0.91883540560232
H           7.58310668441958   -1.81394247087802   -0.86567510236996
H           9.82095619767164   -1.90539080383540    0.15841017542829
H          10.33748818001790   -0.53658395069108    2.13987738919984
H           8.61934689739375    0.93659240999048    3.11290377367979
H           0.93636686230916    2.13257672528223   -0.12080997270419
H           1.91965391557595    3.86119932067217    3.30575689837861
H          -4.79115078653889    7.43901659829434    0.81977124484475
H          -2.94619297965040   10.65376493825555    7.86644285924535
H          -1.69312228145702    8.78811743137910    6.65496373120226
H          -5.68361821674710   12.44022949363793    7.08024794522053
H         -11.90353279516422   16.43617370018437    4.01384285909537
H         -11.15494921052419   18.08413036117895    7.53733065828376
H         -14.69181970230034   20.19343941543823    2.80762071790799
H         -14.48795678293953   22.35821302359874    7.29363759415757
H         -15.89331453311335   24.15335322076569    6.49357393254311
H         -17.18980809828056   25.21690487417308    4.68981382049167
H         -17.31308564567236   24.16918105741203    2.46411489916208
H         -16.13909166396795   22.04850363714432    2.02384952559747
