107
 SCF done       -207.516342057896          0.000801650711
C           0.74603424991111    1.39321228191636    0.82330097164574
C           0.90308746066172    2.43071241507027   -0.05554105339837
C           2.12007149722350    3.11114638936322   -0.25676121937533
N           3.08311844713183    3.70840878889905   -0.44201752794337
C          -0.12201908480477    2.89798156653528   -0.90228556824618
N          -0.91345131127161    3.28679392841793   -1.63744340481719
C           1.81715041562896    0.71783169447160    1.54565703554652
C           1.34125520250541   -0.55445254017547    1.97940109770218
C           2.13927461701185   -1.42420315724129    2.66477440117885
C           3.46886275745882   -1.05025326517081    2.96389179701223
C           3.94632918797679    0.22556889594988    2.54604053206133
C           3.09976525141168    1.10268033924130    1.82932359073312
C           5.27175643074460    0.58918152204294    2.85990660653263
C           6.08782510537792   -0.26422604802386    3.55118336980954
C           5.61687274508643   -1.52043384589594    3.96125173526530
C           4.33573104007788   -1.90512462447721    3.67285036606577
C          -0.07297988699325   -0.70356555375565    1.59112273965533
O          -0.79062805335534   -1.66587332295879    1.74021375511169
C          -0.46259267486073    0.62234605093027    1.02694233996190
C          -1.77648356865772    0.92657521024744    0.90535833142647
C          -2.41230751238792    2.20398059739188    0.76956898445983
C          -3.69591160028026    2.27122340203267    0.22289904822575
O          -4.23225623971619    1.09316529517219   -0.21435713511689
C          -5.50946865881958    0.73564274765614    0.29666247417684
C          -4.38499276653671    3.50837907170173    0.06456490817210
O          -5.60199715362923    3.55490101717981   -0.56762611308565
C          -5.57905407124689    3.16665839769830   -1.93839858801066
C          -3.88798118241878    4.67525957740361    0.61968349573207
C          -2.62646407247371    4.62268798697999    1.24890567622843
C          -1.86553525452612    3.40565873691296    1.28401752485250
N          -0.69706508941836    3.56872542333431    1.90121474961467
S          -0.56346028067124    5.11048377730253    2.35525453805037
N          -1.97391096319982    5.63902783106206    1.80984375557827
C          -4.63888544785949    5.92972603212794    0.62333671037743
C          -4.91293861386279    6.56154851562840    1.84552731815974
C          -5.63168932192298    7.80579021703011    1.90585741398360
N          -5.79147273449447    8.43828504898269    3.09561490324116
C          -5.32252310417787    7.86729363221174    4.16212017754242
C          -4.71992107484599    6.58405474614863    4.11541568103493
N          -4.52617103106272    5.95678787433865    2.99648813947985
C          -6.15465962385151    8.40849358358715    0.75230933143297
C          -5.87209674055796    7.78596084371444   -0.46611547721326
C          -5.10557843990625    6.55795824418194   -0.53313883602123
N          -4.92259070389279    6.16552590618046   -1.80107746296717
S          -5.65793051804017    7.20014041996498   -2.77332956390717
N          -6.24972741320352    8.20122394058740   -1.68200050467501
C          -6.82834136906097    9.70751853583996    0.82032160711405
C          -7.94320302781450   10.00375893363169    1.57333818151186
O          -8.74196029448769    9.12549158500151    2.21730256472518
C          -8.75621909817379    7.76325019993354    1.86823256329631
C          -8.43280844783782   11.36268673976300    1.71104271296275
O          -9.54189612499884   11.39937645907984    2.47367292412749
C         -10.20839742862328   12.59879799224020    2.78137845753466
C          -7.85135465907052   12.41680742796450    1.03091521193841
C          -6.73711275426392   12.10871330574057    0.20049724930468
C          -6.22355073580179   10.77538929052050    0.10948778042966
N          -5.13757946881906   10.70574810085962   -0.65220810594215
S          -4.80970861558356   12.17755531302002   -1.21752817352456
N          -6.01137276187129   12.97587283783636   -0.49590584268221
C          -8.23593334540035   13.81495822360572    1.10934717190562
C          -8.42846629588136   14.59624531041115    0.02214541320759
C          -8.61770217826978   16.03841687104578   -0.00264211008562
C          -8.83415173840403   16.85437387389400    1.07601729404426
C          -9.01816425706211   18.25055355899985    0.99005484653969
N          -9.17871956895447   19.38726600268579    0.98593553405301
C          -8.95846036764839   16.40923619426838    2.40803850157086
N          -9.09747575947912   16.10836580036706    3.50817195647786
C          -8.59276538751603   16.45704095866656   -1.39780969906372
C          -8.52464574137290   15.29863483145377   -2.22467953202146
C          -8.49826080840026   14.09200385727182   -1.37862320293727
O          -8.59693526737628   12.94177194189455   -1.74193010362832
C          -8.50978625557618   15.38701172488619   -3.58641670226072
C          -8.55459834814998   16.66082639021450   -4.19633244702569
C          -8.61585610631546   17.82442295437500   -3.37618736250618
C          -8.63384098367057   17.70265485884045   -1.96855732678546
C          -8.66483495196852   19.09036966308665   -3.99552362501689
C          -8.65655203699343   19.20348110328489   -5.35887908999419
C          -8.59648937294169   18.05708055743964   -6.16554729504787
C          -8.54548563037052   16.81341736362529   -5.59674236229081
H           1.76106864259222   -2.38587893137647    2.97871104751847
H           3.48237321326402    2.06670191546898    1.53238999561687
H           5.63096324071155    1.55625118149355    2.53974673370799
H           7.10168287990347    0.02379809295776    3.78592951094092
H           6.27389101818219   -2.18120212669503    4.50691217876000
H           3.96730716981861   -2.87125290832635    3.98581339089594
H          -2.45358627387401    0.08089154843409    0.98177206037560
H          -5.43304489491499    0.49590206147892    1.36203326971380
H          -5.80540445881562   -0.15482832785183   -0.25477563570783
H          -6.25358254269446    1.52129182584101    0.16179811162799
H          -6.61331874685551    3.22074023693590   -2.27319859696429
H          -5.19787023809548    2.15287957953512   -2.07428380206892
H          -4.96521583980669    3.86599750884666   -2.51020133115997
H          -5.43766765209638    8.40383314165788    5.09409767120800
H          -4.41324687031354    6.07516506177286    5.01969553186928
H          -8.58794212831997    7.61732880380956    0.79856452734563
H          -9.75184746884196    7.40430417135106    2.13304289608878
H          -8.01353820060562    7.19197994996722    2.43163087376156
H         -10.37520354895380   13.20912975311520    1.88839200570943
H          -9.66981499660560   13.18507683026816    3.53021511804212
H         -11.16918779041026   12.29422484016168    3.19653065939601
H          -8.25313172739322   14.26459745997492    2.09164016524765
H          -8.46386785601805   14.49418387501851   -4.19218397835762
H          -8.67861329039725   18.60179282917896   -1.37453663547229
H          -8.71212616379020   19.96963506641072   -3.36989347103827
H          -8.69652570011002   20.17714037959326   -5.82388852312982
H          -8.59115965657305   18.16470813229554   -7.23996971642009
H          -8.49974114888959   15.92741969261509   -6.21305209604657
