131
 SCF done       -252.976712924006          0.000891918873
C           4.14082274695080    5.63491364919442    5.59977938725028
C           3.22273939361815    6.49005311817922    6.13971286161344
C           2.33869736006598    6.13187516654363    7.17817994465129
N           1.58568885217074    5.87604068069471    8.00505302935574
C           3.12083776813815    7.84380691400126    5.75818530204668
N           3.04573030541809    8.96480994511857    5.52560682517986
C           4.46368025267023    4.29412780013025    6.05836786808073
C           5.73052098199434    3.92226209827755    5.51771181031516
C           6.26259894773624    2.68345521927713    5.73390502095443
C           5.53440992720211    1.74581356133431    6.49981452394093
C           4.27560839699794    2.11897528917520    7.05591652182613
C           3.75662902037661    3.41365556286546    6.83189791179770
C           3.55345495954970    1.16921985512530    7.80664672050655
C           4.04637260210003   -0.09350130001045    7.99367407948678
C           5.28553379646998   -0.46071350710161    7.44660093508666
C           6.01564557458455    0.44008773467017    6.71919384823397
C           6.26305090062583    5.02774529176198    4.70168486977948
O           7.34269421108665    5.12493624563263    4.17167809012483
C           5.10922348505136    5.97264721040691    4.57300850147181
C           5.00772247119175    6.74834787396054    3.47002550011600
C           3.82453346802127    7.31148220105288    2.86571313919791
C           4.03276526197071    8.57640223848126    2.14205755905546
C           4.68889046982699    9.63777464940744    2.76338090977670
C           4.85417753045625   10.83443840520050    2.09816440268017
C           4.39082741846010   10.98300143368153    0.79210978335978
C           3.77718719522928    9.90943660315101    0.15006605052683
C           3.60551966515449    8.71712759697915    0.82095636355958
C           4.56044601175527   12.29174474145322    0.12270855425923
O           4.99199268531009   13.28161107365860    0.65861149905390
O           4.18236276852237   12.28438074654811   -1.16454820615137
C           2.63395056818796    6.63732628033818    2.80868069251609
C           2.51882590146110    5.23134797513190    3.24033604567269
C           1.51181140895834    4.84962401924869    4.12775759406990
C           1.42699841323432    3.54487339809405    4.56549255721008
C           2.34364578034480    2.59450083977267    4.11960021522844
C           3.32290283916550    2.96028254667196    3.19869192938734
C           3.40749017750627    4.26594538653339    2.76646593017475
C           2.26217313757318    1.22167049521161    4.66118743686150
O           1.42670872003183    0.84337100990010    5.44386193437686
O           3.23887615127556    0.41602539203654    4.21765579761674
C           1.43211310720063    7.22759594979086    2.25168788250756
C           0.54326109426045    6.46090820408995    1.46926212076256
C          -0.61939211448409    7.04316404100011    0.84792883274088
N          -1.45435221860231    6.26390653756631    0.13814953479761
C          -1.16818361160120    5.00114936018361   -0.03550448322714
C           0.03818103450268    4.44129228662943    0.51055562921545
N           0.83983893184104    5.17038473825556    1.23875648761799
C           0.37946340984945    3.08583780387713    0.27334597548145
N           0.63482078531666    1.98882454832444    0.06719711035872
C          -2.04723484080776    4.19799058810244   -0.80419330579557
N          -2.71759882275340    3.53288986100470   -1.45203303724390
C          -0.92586908962618    8.41701510906996    0.95721443127963
C          -0.07931681829683    9.16749589595174    1.79258889503381
C           1.07364683677277    8.57449284926584    2.43523902192795
N           1.73184884036183    9.46990013791406    3.17425212204210
S           1.01624848743694   10.88644617390208    3.05793474583606
N          -0.17461688344200   10.47072738699472    2.07426128663270
C          -1.95801929465156    9.00811483802703    0.13316125231054
C          -2.10949851512884    8.43724092681399   -1.21801468023220
C          -3.37210003976354    8.18466612546030   -1.75528745252522
C          -3.50914106529853    7.78772192921027   -3.06761216525311
C          -2.38542112158536    7.59118239849276   -3.86786467177112
C          -1.11932184870924    7.76832636519504   -3.31352952742233
C          -0.98502146077465    8.19520206159233   -2.00784343816915
C          -2.58955619898711    7.30418316171742   -5.31476971160077
O          -3.55159175141343    7.69232278064491   -5.91944693000843
O          -1.62031750721071    6.61011606695227   -5.93632182164652
C          -2.72737528524853   10.06595372228183    0.53422389556303
C          -2.86538008213006   10.47317717084872    1.93474157612732
C          -3.03569105728889   11.82322373005155    2.24245236437384
C          -3.19330031267311   12.23527997055729    3.55011898395307
C          -3.20181546846009   11.30042540921980    4.58330295211852
C          -3.07563183448021    9.94621030529527    4.27277191374190
C          -2.91203545303260    9.53575936673145    2.96831272511668
C          -3.37467347428334   11.65542776778349    6.02415929225892
O          -3.68683982287530   10.84682423731461    6.85404084835754
O          -3.15204841031983   12.93555155076974    6.36562131847113
C          -3.58267622681357   10.78306069797709   -0.39211390899535
C          -3.22897289067412   11.19659009211020   -1.62653698794776
C          -4.14385135908477   11.61834354377119   -2.68313572303680
C          -5.35167526223647   12.23208295491951   -2.51717638848662
C          -6.18293568551415   12.62147743503527   -3.58957883701248
N          -6.88778730525470   12.96104753162250   -4.42816362755177
C          -5.85828045257980   12.61168582101277   -1.25543950678060
N          -6.28455114283566   12.95125478901907   -0.24558083158766
C          -3.49541428864708   11.28400746790291   -3.94126105759736
C          -2.12074167876039   11.00439789966547   -3.68354009203962
C          -1.86828549293684   11.08297616312612   -2.23835977607025
O          -0.80285631255972   11.09866734243706   -1.66471450342459
C          -1.26426020391253   10.64888557064637   -4.68620737932778
C          -1.76372404600030   10.49479688016986   -5.99734778790306
C          -3.14350331621391   10.74728458499219   -6.25542234650758
C          -3.99687126131454   11.16397327233225   -5.21041509129589
C          -3.63639436523788   10.55120860267297   -7.56035560722203
C          -2.81174207471492   10.11633109188894   -8.56130570705545
C          -1.45480731517979    9.86858829871700   -8.30726273848911
C          -0.94074293419710   10.05863425563170   -7.05382821988008
H           7.22108352274147    2.41524468430442    5.31510776378246
H           2.79502740566517    3.66759260968593    7.24926954979666
H           2.59740120591940    1.45413122100902    8.21831672749966
H           3.48234999605843   -0.81666801633206    8.56293525448001
H           5.65919962468676   -1.46152277472247    7.60436423470362
H           6.96996111005811    0.16235200513044    6.29652154589026
H           5.93313339607221    6.90941197897286    2.92394917590482
H           5.02090725042969    9.52990102704194    3.78386366042742
H           5.33715710300540   11.67408264424683    2.57397523491164
H           3.43479925699033   10.02297461849326   -0.86651053534444
H           3.14027479118996    7.87900353543782    0.32088220040047
H           4.30872085230188   13.16633395871904   -1.54773352785639
H           0.80819216617151    5.58854648680394    4.48627379244761
H           0.66178378470146    3.24137956682953    5.26379016756616
H           4.01207155167369    2.21656683155277    2.83212156015076
H           4.16231421482364    4.54806959176806    2.04743305476068
H           3.12733658544459   -0.47056301889648    4.59452857237682
H          -4.24812410180843    8.31600679456187   -1.13782845946020
H          -4.48462353102759    7.62890037271550   -3.50067845277295
H          -0.22831175446332    7.63292447446408   -3.91304526827025
H          -0.00229758553441    8.39435557784032   -1.60566428891145
H          -0.95027523182496    6.28040664732290   -5.32308668154745
H          -3.02298393210162   12.55287678363704    1.44705189008211
H          -3.34339089511944   13.28995408513410    3.74040077087638
H          -3.11803952570461    9.23236734234641    5.08156486431941
H          -2.84008886858389    8.48273539495934    2.73817364850562
H          -2.88157960928740   13.48386698656994    5.61756865479996
H          -4.59087484644769   10.97280971752122   -0.04090738043083
H          -0.22206475463394   10.45938172519303   -4.47448830739072
H          -5.03702347179924   11.34739114814280   -5.43013678221699
H          -4.68253758964296   10.73707515378823   -7.75004486306957
H          -3.20172130721059    9.95428891302326   -9.55450732471485
H          -0.81959292375829    9.52022180212617   -9.10769906989469
H           0.10346407688116    9.86664903552445   -6.85195897921616
