109
 SCF done       -195.840356537546          0.000858718842
C           0.44179484445012    1.21058971506758    0.31427398128084
C           1.17413309435855    2.06433441975384   -0.47299790505672
C           1.83313974429844    1.67387345000328   -1.65562817744885
N           2.36151814201472    1.42550947149485   -2.64451007442177
C           1.41572583085614    3.41630294146009   -0.16318007520060
N           1.66150981233506    4.51829895273693    0.04674447816246
C           0.39715623288077   -0.24046505058792    0.15420817293303
C          -0.04729125694232   -0.81790631139830    1.37924504245800
C          -0.15707864860803   -2.16876319241520    1.53805002471786
C           0.16889409235221   -3.01877476696605    0.45669851887476
C           0.60253465885868   -2.44760882141177   -0.77433045966476
C           0.71281698412465   -1.04401525822525   -0.90771914534417
C           0.92060478926982   -3.30561891399643   -1.84638262441273
C           0.81689081409701   -4.66333588353526   -1.71103404275752
C           0.38896184279766   -5.22486186255748   -0.49899332343252
C           0.07280299854600   -4.42014266342824    0.56200052164121
C          -0.35187261444568    0.25769274598790    2.33960837493259
O          -0.70287773205028    0.15334923769698    3.49273550652104
C          -0.19614310531259    1.52578243262225    1.57130295576267
C          -0.71576038706309    2.67266940181514    2.09681325842428
C          -1.05640108627061    3.87985124299156    1.45438708697739
C          -1.29024715129252    4.13189352905669    0.10501081297102
C          -1.64345317136687    5.44613183972803   -0.13304569976647
C          -1.67954422645855    6.21857803854057    1.03372520529043
S          -1.31575456260579    5.31386987877045    2.43462590624146
C          -2.00519773889248    7.55057734933839    0.68724569923976
C          -2.17620570272501    7.63191608678262   -0.69536761579422
C          -1.94919993713176    6.28897386183282   -1.34741747412292
C          -3.20107539778111    5.80072856550720   -2.08071465047566
C          -0.74224647494222    6.32844770513002   -2.29059268468493
C          -2.50300975366568    8.91246428704295   -1.11867849015158
C          -2.57855985239823    9.80688347551717   -0.06386277414208
S          -2.24067953020931    9.05462950409188    1.47549934186700
C          -2.89083760042107   11.20338994520448   -0.15107222747217
C          -2.89883407348882   12.05783716490809    0.90694550135273
C          -3.21282570562512   13.43951317361532    0.72349817840156
C          -3.22959376321972   14.33903629536979    1.77578928085086
C          -3.53536899470474   15.69505583734727    1.58146266473537
N          -3.78558277420052   16.80349188998078    1.41128944130035
C          -2.94096701687726   13.94227304954436    3.09070591226243
N          -2.71114081979582   13.60879959466487    4.16599756153414
C          -3.50723708553582   13.83264358458696   -0.61824278863976
C          -3.48427482347731   12.92140366231450   -1.62739695577043
O          -3.18199287417610   11.61080642643894   -1.41723005259970
C          -3.76907962515132   13.22484024124029   -2.99957547156371
C          -3.79806354849102   12.32766191570654   -4.05448593883457
C          -4.09917481401965   12.94732109831756   -5.25940446439007
C          -4.29825542770304   14.32187122364644   -5.12045488849002
S          -4.12113730952965   14.85967129914013   -3.50171804397306
C          -4.58413229370094   14.87829305458697   -6.38849149117207
C          -4.56761604229746   13.85274855976803   -7.34475125013205
C          -4.26458941709450   12.52146624001276   -6.69879540517810
C          -5.43640844186577   11.54866733044595   -6.86232564418128
C          -2.97540309358553   11.91382998407690   -7.25840905033349
C          -4.82277851978968   14.30046351319622   -8.62581785700098
C          -5.03498293473669   15.67599474519469   -8.67435255584957
S          -4.92317647058884   16.40502136071498   -7.06743661699781
C          -5.32677670740416   16.56087503443389   -9.72825447488008
C          -5.39924050434405   16.37482169506675  -11.08367909886719
C          -5.72925915387954   17.44384389180100  -12.01499887186346
C          -6.27052331724030   18.66730193358485  -11.71387195728316
C          -6.57316901262231   19.65262855853872  -12.67754146150235
N          -6.84280144059279   20.49905105319812  -13.40491024705249
C          -6.64725924690403   19.12035841486763  -10.43173621412318
N          -7.00514554297746   19.56190211475685   -9.43321834346583
C          -5.45349020888834   16.96469266644458  -13.36425437567593
C          -5.06645998569960   15.59830498591874  -13.28347178088795
C          -5.06005627082973   15.16831527804072  -11.87515964191476
O          -4.81284899728594   14.04427420071197  -11.48346708841861
C          -4.75657495400381   14.86702429267471  -14.39369875819157
C          -4.81357551297590   15.48486276421542  -15.66279051065856
C          -5.19075237412740   16.85571448499415  -15.75229813358990
C          -5.51045075592253   17.58527809058589  -14.58403763528975
C          -5.23986008759446   17.46448789075927  -17.02280912508487
C          -4.93291456882445   16.75466386421203  -18.15168677750386
C          -4.56218037593284   15.40467573492902  -18.06236285573923
C          -4.50394382137390   14.78328250183675  -16.84441464334865
H          -0.48878438015690   -2.58569791500047    2.47727513308966
H           1.03533489033517   -0.63896676076361   -1.85426232158924
H           1.25293366748694   -2.86865608256327   -2.77667401377859
H           1.06481204126313   -5.31224150110160   -2.53760921547201
H           0.31113500681489   -6.29806809158995   -0.40992960083338
H          -0.25662311501988   -4.84703542937149    1.49794636853634
H          -0.96193195226605    2.61120412698578    3.15307413110191
H          -1.24010404347909    3.36492745319408   -0.64678653881365
H          -4.05282750296831    5.77849735329452   -1.40460264996480
H          -3.03820643274788    4.79900570502949   -2.47004018166832
H          -3.43057249741282    6.46487296168812   -2.91009174433004
H           0.15148034149117    6.62314878170985   -1.74620824589964
H          -0.91715365975221    7.03822527040078   -3.09514688208775
H          -0.57257038826156    5.34443971462387   -2.72006882211745
H          -2.67807517819896    9.20775238427765   -2.13654508036351
H          -2.66187455804497   11.69266078730543    1.89373291567443
H          -3.75158193337040   14.86179542079633   -0.82911745127923
H          -3.60664787373065   11.27891186808101   -3.92265832668706
H          -6.34909479008621   11.98361094564915   -6.46145603227563
H          -5.22997252258967   10.62138451747286   -6.33366822071786
H          -5.58868159388888   11.32773027822084   -7.91537248623702
H          -2.14406132179394   12.60276391841351   -7.12812299380534
H          -3.09422848373076   11.70828442444575   -8.31883049445329
H          -2.74393476336971   10.98525845980506   -6.74258776388716
H          -4.85389071406748   13.68937779478073   -9.50887864302224
H          -5.49980892499218   17.57426980573488   -9.38444659403651
H          -4.46948836585994   13.82970832397733  -14.30424945253086
H          -5.78741511954948   18.62215409603649  -14.68698923212766
H          -5.52704257205961   18.50378523192673  -17.08664657150349
H          -4.97430000393629   17.22982255019659  -19.12032702429238
H          -4.32275886165398   14.85971798065203  -18.96327744406000
H          -4.21892363609497   13.74395957562679  -16.76936003436897
