93
 SCF done       -188.781276287787          0.000890129412
C           3.55574402382228    3.78376477676337   -1.24137149831742
C           3.76744227735563    5.07871276016209   -0.84200992017825
C           4.97912842064527    5.55443658036748   -0.30926947791769
N           5.92148335476187    5.99126713319163    0.18188818261725
C           2.80082363442875    6.09617001697761   -0.96107627224505
N           2.05751606126007    6.96436400816218   -1.07318100459256
C           4.59134550834158    2.77612309620049   -1.44049938496934
C           4.05986908028392    1.73860431955603   -2.26174862765050
C           4.81683814591003    0.67061628497761   -2.64719792041978
C           6.15887637721051    0.58346232350706   -2.21123802796749
C           6.69188695180903    1.61090978245216   -1.38063030571968
C           5.88662407089478    2.71159761773933   -1.00532051183992
C           8.02947454471533    1.50802404357586   -0.94868098279370
C           8.80584338922746    0.44367722128271   -1.31882232286671
C           8.28037270796358   -0.56711412273187   -2.13684715053849
C           6.98532888142714   -0.49805670386349   -2.57391971596201
C           2.64459983511965    2.03007005792842   -2.55889998083539
O           1.88575103571884    1.40525097674542   -3.26375733772120
C           2.32130175754254    3.23941585329654   -1.74919196681984
C           1.01306586285594    3.54668031110438   -1.50572362837486
C           0.46323774910752    4.34294977213426   -0.48513855256440
C           1.01290653615559    4.78034976976176    0.71846232495529
C           0.11497280632864    5.55925344184525    1.49801011772377
S           0.91095409284289    6.06222951906312    2.94458254348901
C           2.34960442657475    5.18054647061023    2.39880410439612
N           2.23423043267231    4.57763127402020    1.27154154976683
C           3.58627219507372    5.19036821778313    3.20588593024435
C          -1.14375071276179    5.71937913950632    0.92838585069953
S          -1.19823211195486    4.87108739066241   -0.59712013135345
C          -2.27688486427524    6.43136845292500    1.39747160909358
C          -3.48004230188998    6.46221626201292    0.65131084617420
C          -4.64070170464754    7.18282067019555    1.07955786119314
N          -5.72863532873777    7.20776562683704    0.28584430522343
C          -5.73374641685866    6.54418041303548   -0.82275584636886
C          -4.60357475206449    5.77940998552256   -1.21883615720887
N          -3.52776735074582    5.76840541284640   -0.50107962462542
F          -4.61454463819025    5.06498210847097   -2.33798896294130
F          -6.81283909514884    6.60946606858929   -1.59138728076017
C          -4.68412154998571    7.89894175531910    2.29839174986787
C          -3.50462973678596    7.83595582960728    3.07565415195590
C          -2.32126966435594    7.12927805983983    2.62732875106125
N          -1.34605257584751    7.19762493885273    3.52993707115561
S          -1.85681103563246    8.03386089465654    4.80582484412021
N          -3.33292057363490    8.35246956885778    4.28938237268858
C          -5.85490848625107    8.59515861377999    2.69815762774031
C          -5.98261408874976    9.60250586619837    3.65885806159814
C          -7.32514072264418   10.01994570240745    3.81328360525798
S          -7.43470973749282   11.28178229309132    4.97944079148097
C          -5.65456145000694   11.16821233455616    5.15114408452246
N          -5.09226853095839   10.28802414635303    4.42084168197599
C          -4.95790784167431   12.06674185637409    6.09244923923870
C          -8.25006207232842    9.36485239794781    2.99942763141790
S          -7.39831906506970    8.21183722951389    1.98676434189888
C          -9.61779721228474    9.66485335768579    3.02394466571786
C         -10.63809921450177    9.15733360499204    2.26049192697061
C         -12.03281999290109    9.54525767593974    2.32402091189613
C         -12.61077844540330   10.43002295028900    3.19951740121539
C         -13.98380247018621   10.75270510468621    3.20376390011210
N         -15.08847673736296   11.06070044958118    3.26479054703272
C         -11.94345874850581   11.13758060587505    4.22042592664842
N         -11.47905844023616   11.74928163463516    5.07506114103250
C         -12.74055454967438    8.81054919880746    1.27860152606949
C         -11.80872398040474    7.97039475822795    0.60360826843709
C         -10.48066383166401    8.14260106711650    1.20882430732153
O          -9.46017706793611    7.55107301152162    0.90410733876091
C         -12.17620718550016    7.16682925572836   -0.43617897978474
C         -13.52481707747069    7.16416066558465   -0.85839615287055
C         -14.46593742892687    7.99594575974869   -0.18616421575302
C         -14.05282244108049    8.81924238449698    0.88760385407544
C         -15.80894816860950    7.98328216546409   -0.61333174641848
C         -16.20493523236747    7.18945917343790   -1.65561369184662
C         -15.27676893088112    6.37321559150800   -2.31848924103760
C         -13.96488330866573    6.36056520651043   -1.92802532809146
H           4.39828444688930   -0.10154980136868   -3.27542346763080
H           6.31144533718430    3.47410889221182   -0.37114606107925
H           8.43063015732851    2.29008245976248   -0.32074530622220
H           9.82981668252802    0.37503227648191   -0.98312416037259
H           8.90638768681499   -1.40042596075426   -2.41904772616200
H           6.57524550098151   -1.27344505280450   -3.20439018314481
H           0.29523350514333    3.05147825749633   -2.15261350860440
H           3.37793864360876    5.51476030172697    4.22145201855447
H           4.30825447164602    5.87450232384454    2.75694627256352
H           4.03411517903493    4.19873185612079    3.21252380147655
H          -5.14431785640976   13.10723693465727    5.83006609815233
H          -3.89079854559089   11.86671321778693    6.05808378430210
H          -5.32589642676325   11.90759071156049    7.10514407267036
H          -9.87331374288557   10.42254555934192    3.75636287798974
H         -11.44653356909808    6.54406992217220   -0.93201977518983
H         -14.79068820927330    9.43923524134345    1.37117780766469
H         -16.52007364761086    8.61415695694062   -0.10039707349137
H         -17.23630152085370    7.18701014879470   -1.97508097878615
H         -15.60590260588369    5.75432145655984   -3.13979659024208
H         -13.24516277374593    5.73419285568041   -2.43445290003605
