105
 SCF done       -201.733248302472          0.000455610925
C           6.69110548677778   12.87064913389580   -5.88984491283734
C           6.23635502423094   12.29789307077714   -7.05083942638556
C           7.05176831303680   11.56151386768092   -7.93181428997983
N           7.67436513369020   10.93705765712381   -8.66705904591825
C           4.91395808711471   12.45718411365382   -7.50950078080312
N           3.84510147029686   12.58737854030336   -7.90760922479474
C           8.08644872703746   12.94610159323721   -5.46849814978578
C           8.21385948022383   14.00557431753714   -4.52328370103845
C           9.41390260126725   14.31600598263018   -3.95298227322456
C          10.55586830360367   13.55566244269866   -4.29435164866698
C          10.43183341002231   12.48773825588749   -5.22929999346902
C           9.17791896630811   12.19887586558144   -5.81701072456799
C          11.57549159715289   11.72818039612538   -5.54769386646046
C          12.78479463622887   12.00756242981153   -4.97130910474974
C          12.90625041925625   13.05952116477486   -4.05159500259494
C          11.81590337709859   13.81820122744023   -3.72197879348903
C           6.88725309000554   14.60256097566691   -4.28062896069343
O           6.61161399794577   15.56063849036876   -3.59564446906272
C           5.92928973269236   13.71780897952148   -5.00366389062508
C           4.61766739989659   13.74148047163437   -4.62922530251922
C           3.62726230292189   12.74621133166880   -4.74772397309006
C           3.73729700956120   11.40951180847043   -5.10466519119276
C           2.55559273001324   10.71190811437641   -4.91001066724203
C           1.50986734088761   11.49778949149223   -4.39146723452296
S           2.00782827289939   13.12885861633378   -4.17460761533263
C           0.38471634722696   10.72653826716540   -4.09470428913563
C           0.57682787435068    9.35811097419772   -4.40270874304362
S           2.13892915396624    9.02374409018615   -5.09185527194304
C          -0.53980560210419    8.67459445566578   -3.96045203777839
C          -1.38269977619346    9.63126551314552   -3.36063292241379
N          -0.81703737426807   10.87902429952907   -3.48756910278464
C          -1.37968401879390   12.16589040609957   -3.17273923211610
C          -2.50920260045204    9.28960172496238   -2.56899360939923
C          -3.07011765995573    9.92316950527895   -1.45410004380862
C          -3.95789234905729    9.06382636739943   -0.71191951539686
N          -4.52433020406578    9.44868039194633    0.42865448861607
C          -4.24621698978954   10.65859931926125    0.86450162772094
C          -4.86450300018334   11.09356960865015    2.13582876022123
O          -5.57746564214340   10.37139509251583    2.80499248469081
C          -4.54721018075010   12.47497010029060    2.53565907273370
C          -3.73565852248567   13.28443271806731    1.84454783600456
C          -3.06154625739977   12.88953956308392    0.59945658254092
O          -2.29733118296222   13.62553786918901    0.00421991753266
C          -3.37439011406714   11.52207851085737    0.12636088312170
N          -2.80713231910007   11.15008039238133   -0.99962422778941
C          -4.10286073870560    7.78802268351760   -1.26259693571337
S          -3.17084021316889    7.67587583999022   -2.72036138411893
C          -4.73219936901406    6.71469843969034   -0.60899981746190
C          -4.93851132557476    5.41671717271740   -1.05088856564242
C          -5.41759681980004    4.60100869823415   -0.03362378519529
C          -5.56105518020425    5.27167770056309    1.19377323944812
S          -5.18072586498628    6.94891634233132    1.07219332323528
C          -5.87846779023389    4.38975761125918    2.22606003911443
C          -6.02871578035584    3.05334236583334    1.78148582243714
S          -5.76493508493111    2.88718092662810    0.06559626146100
C          -6.28803226445971    2.27532162019963    2.89467269239365
C          -6.21825932437200    3.13899538945073    4.00663097035654
N          -6.00065887675148    4.42441633484632    3.56904734422987
C          -6.05916683561979    5.64637220003403    4.32191985610306
C          -6.25800087953601    2.71486975233802    5.35884817539442
C          -5.46639847746499    3.17462220955152    6.37529368079308
C          -5.55640143514988    2.79362116819226    7.77113166170510
C          -6.64645056570229    2.22946945135596    8.38254789492969
C          -6.69608244334324    1.89294254965293    9.75039651182673
N          -6.78949001617553    1.59347803754777   10.85487516210699
C          -7.86584589522679    1.94944995371765    7.73218029034660
N          -8.89051153043110    1.72243149835366    7.26556188532759
C          -4.31864931449705    3.19676745099960    8.42728913860722
C          -3.50049672375092    3.86410634706845    7.47216363392152
C          -4.18381466868636    3.89340660244768    6.16892801946302
O          -3.73342719308336    4.32719446732552    5.12798351997733
C          -2.26955726872030    4.35802917097552    7.79311292747509
C          -1.79042962698573    4.20645492907988    9.11348799646729
C          -2.59964216157412    3.53501461537879   10.07481969286936
C          -3.87089076632261    3.03224946034511    9.71116628358872
C          -2.10675381713800    3.38247490369780   11.38658093095255
C          -0.87605060740110    3.87015244634279   11.73391249043131
C          -0.08132886644208    4.53232665498645   10.78662319076533
C          -0.52946076110390    4.69756026538388    9.50408316912069
H           9.49170718085380   15.12559901912454   -3.24261783839829
H           9.10762372922723   11.37898004535045   -6.51519073983952
H          11.47758874949915   10.92039983159372   -6.25810396793931
H          13.65467630431273   11.41867643507055   -5.22101687812384
H          13.86746179014288   13.26544338423589   -3.60486497291918
H          11.90311327543741   14.62922547694605   -3.01375815469175
H           4.33605165201148   14.60888540807519   -4.03907271267112
H           4.65198910362328   10.94739164235196   -5.42496022808936
H          -0.72592699602672    7.62051286197437   -4.00113091752357
H          -2.45359139527420   12.15293393462449   -3.34678059509633
H          -0.91709884268444   12.91140391450244   -3.81848667113494
H          -1.20937246614387   12.43865098676648   -2.13058397473836
H          -5.01804485557066   12.80407087445320    3.45229427036522
H          -3.52682592793944   14.29102913016699    2.18101446014192
H          -4.72347101946471    5.09729373047537   -2.05418815358970
H          -6.43726102835965    1.21560469683652    2.94092663420157
H          -6.49394367154582    5.45602829029174    5.30132504741151
H          -6.67118607019658    6.37316861754539    3.78562703516168
H          -5.05746100384656    6.06162302813371    4.44948125075504
H          -6.91516312830439    1.87584542722789    5.55358286234354
H          -1.66868026001361    4.85921056195084    7.04868549875819
H          -4.45607259235384    2.52103624769421   10.45915493808520
H          -2.72192314524677    2.87275053970126   12.11347239686098
H          -0.50786845772481    3.74798394029944   12.74149760243910
H           0.88741811055559    4.91033951068725   11.07747426688410
H           0.07762296017145    5.20627969542253    8.76939981043772
