135
 SCF done       -263.200192918001          0.000886808651
C          -0.35513044283361    1.12873483850557   -1.17454827990367
C          -0.38196701860230    1.80937923010182    0.01682235206847
C          -1.11136148822365    1.39635114913379    1.14688801283254
N          -1.73519392958955    1.14108850467977    2.07743240665468
C           0.34652892970270    2.99262357970759    0.25429551649556
N           0.95185603547545    3.93602712386939    0.50108172010505
C          -0.81298908915964   -0.24503913957553   -1.35994455001505
C          -0.20468281139035   -0.77050749881581   -2.53731983817860
C          -0.40430849957210   -2.06070246974122   -2.93494629466165
C          -1.24551747535050   -2.89641091031915   -2.16642462468396
C          -1.87076570336574   -2.37284078825204   -0.99802162613663
C          -1.63957665944930   -1.03397161991125   -0.60619558529583
C          -2.71110157055593   -3.21583398874373   -0.24291246062475
C          -2.92195708599880   -4.51425817778817   -0.61966863903158
C          -2.30503078369648   -5.02890672660224   -1.76960466562820
C          -1.48468765467071   -4.23705084932573   -2.52646476664871
C           0.59660276892527    0.28387307444233   -3.18249172543144
O           1.28717305777009    0.19809374961624   -4.17111836346100
C           0.33031000896649    1.52080740983052   -2.38820849293801
C           0.60682412162300    2.71961143134319   -2.97123657844189
C           0.14400358672670    4.01707268269396   -2.64638671827888
C          -0.86347819745202    4.39260448611122   -1.79532663379776
C          -1.07588093652116    5.78185690960694   -1.71960101987103
C          -1.92032419454505    6.48009046411251   -0.82521776836523
C          -2.63174413100144    5.82487265683503    0.25079115808262
C          -2.81429882517032    6.31021750109969    1.51732727534563
C          -3.48711043231893    5.40703302560896    2.36522463795268
C          -3.84650507271659    4.23077358997256    1.77225298199007
S          -3.34143740206099    4.23559222290003    0.11867262223826
C          -4.50334541973219    3.04348598500712    2.36686010299814
Cl         -3.81398104039831    5.76516829979305    4.01458093158428
C          -1.95535253119320    7.86542938401659   -0.97294430392598
C          -1.16310589890372    8.56274867824952   -1.92339122247990
C          -0.22991467656654    7.87418963420666   -2.72860613506392
C          -0.22418147822674    6.48918433712763   -2.61088004583949
S           0.83632637415814    5.40603150281582   -3.46270280746768
C           0.68879280314404    8.56132951192157   -3.61031357574203
C           1.14259891392647    8.15985049336743   -4.83533895748670
C           2.08660955613193    9.05138703046389   -5.38671923845944
C           2.37653704637870   10.12743961166658   -4.59802577436099
S           1.45537312771565   10.05436263958271   -3.13589997121977
C           3.32429174644809   11.24074897167411   -4.85569400620551
Cl          2.80473549221983    8.79042370096956   -6.92927271179630
C          -1.46639425517731    9.94152444511754   -1.94778288110649
C          -2.42750175963523   10.29756335949939   -1.04423483617755
S          -3.00305257952733    8.95308197577146   -0.09982277618419
C          -2.97477009127864   11.60153233194093   -0.82523651495935
N          -3.83991611821196   11.75020275800650    0.16355123771103
N          -4.41514812739601   12.87678767154379    0.45285976712253
C          -4.19970881717482   13.98676257393991   -0.23520581473297
C          -3.29095911489402   13.96159184205056   -1.32891208288069
C          -2.63815963116238   12.72584488439493   -1.63374004297265
N          -1.80984440156313   12.84354768902305   -2.66839004866127
S          -1.85660288119206   14.36392357011917   -3.19752787736215
N          -2.92456675636912   14.94321189242051   -2.14573332773504
C          -4.89534952653013   15.17976604258482    0.14544552637991
C          -5.69441219430561   15.33908550326969    1.24375325484538
C          -6.25146044841447   16.63286818672632    1.34660225990601
C          -7.06827013529278   17.14642344779163    2.37717710054007
C          -7.53101055440583   16.30079792732360    3.45698867333754
C          -7.98052971588794   15.01254981467670    3.38410031674150
C          -8.35481765757036   14.49571859638984    4.64268162636008
C          -8.19067239711987   15.36601516884961    5.68200964536897
S          -7.57086116601845   16.87366745379416    5.10261098966111
C          -8.47124865557308   15.15749833386087    7.12429282790586
Cl         -8.96550167775138   12.89726026080827    4.83365976749568
C          -7.40151931922698   18.49353832293497    2.29094425049984
C          -6.99524815497281   19.33065884146223    1.21509745622166
C          -6.18623561535194   18.81235401538658    0.17771143781500
C          -5.83776943089595   17.46984246134256    0.27604305481080
S          -4.78604580553146   16.62149842148389   -0.82641932222272
C          -5.71870525624741   19.62484062769604   -0.92460930879289
C          -5.57260877831886   19.25072581530721   -2.23218230661498
C          -5.04617641225730   20.28183922198823   -3.03573652069451
C          -4.77019562376814   21.43837700631001   -2.36309546552216
S          -5.17656570817639   21.26436976514060   -0.69347900679552
C          -4.21346586552734   22.71002008325705   -2.88900284215001
Cl         -4.77727593364694   20.08352862971591   -4.72472568095553
C          -7.52853263919091   20.62970776080994    1.32240248779038
C          -8.29467581117266   20.82457093952694    2.44514582863785
S          -8.39978480866673   19.35752459655572    3.41641821873641
C          -8.98957594927917   21.94955995893113    2.94825944408208
C          -9.08914654610185   23.23596995736976    2.50121206943340
C          -9.84402951479646   24.26713663123091    3.20543871467341
C         -10.71880929222598   24.09224710430901    4.24560830107300
C         -11.41796169768433   25.14693990444370    4.87175981343153
N         -12.01610842538704   25.95240776333406    5.42979758731834
C         -11.09391598836516   22.86660978917393    4.83734099666967
N         -11.47542668081414   21.92552178969418    5.37447113954259
C          -9.55086445224919   25.54817365078373    2.57394504906942
C          -8.71550420241645   25.31299985120242    1.44726522417574
C          -8.42985466911663   23.87355500287168    1.33219130841056
O          -7.78637782442769   23.35472178062969    0.44292407412021
C          -8.28135574026027   26.32677102255258    0.64254324525526
C          -8.66447301876253   27.65330182833016    0.93908334106462
C          -9.49330170007225   27.90003067745779    2.07135189001666
C          -9.93099902040842   26.82813631989649    2.88243390913091
C          -9.86646292423136   29.22810432366730    2.36252294680359
C          -9.44329937240290   30.26316088320166    1.57403869391409
C          -8.62812781695707   30.01870568094658    0.45864777688686
C          -8.24713528595858   28.74163760044432    0.14793350675960
H           0.07394761250046   -2.44030980660696   -3.82561242699742
H          -2.13167309966485   -0.66186685868007    0.27879609605945
H          -3.18206765980857   -2.81631805535662    0.64324635077246
H          -3.56565324745073   -5.15239288141123   -0.03320917740895
H          -2.48263019413814   -6.05566596624264   -2.05248829302690
H          -1.00631796377925   -4.62776182600130   -3.41259699173080
H           1.21757537871277    2.65125946878483   -3.86691688459375
H          -1.47419637491558    3.67876121921804   -1.27982419510382
H          -2.44213783165522    7.25788540886585    1.85801933312630
H          -4.94149721598242    3.30630365482855    3.32627490564654
H          -3.76477382462623    2.25317013960080    2.52265560729612
H          -5.27768801086211    2.65655671128210    1.70700215453538
H           0.79672358818200    7.28388462513594   -5.35131491220586
H           4.19092417111059   11.16586886607618   -4.19836602565106
H           2.84673215230569   12.20185710283981   -4.67271708571834
H           3.66517335863395   11.20030815521652   -5.88726802133548
H          -1.02145090694692   10.65491904507961   -2.61579748523796
H          -5.83451479149101   14.54761891632329    1.95514192393436
H          -8.08609343238492   14.46085175025465    2.46854472815035
H          -9.21219586182601   15.87410476280681    7.47702407371913
H          -7.56592997706568   15.29395114330607    7.71494064931139
H          -8.84861658853922   14.15039456945932    7.28240571422200
H          -5.86449330349461   18.29457264400353   -2.62411193384690
H          -3.21726847853901   22.89020034570362   -2.48520659620539
H          -4.84757165429359   23.54763035348937   -2.60356677896356
H          -4.14906093562466   22.66289660795261   -3.97311797986055
H          -7.37509733151848   21.40771344401375    0.59870439640842
H          -9.51119069857111   21.72876643038903    3.87240338311391
H          -7.65076489947537   26.11761292139746   -0.20888491187371
H         -10.55482637164561   27.05190300338369    3.73267451145114
H         -10.49538339623347   29.41126048799719    3.22134563295625
H          -9.73476335204596   31.27673683637414    1.80518699061094
H          -8.30348481096041   30.84747238675041   -0.15264279380347
H          -7.61943321963403   28.54719939342539   -0.70950439736220
