90
 SCF done       -188.024502381950          0.000866434990
C           0.04395243787477    0.84858626062426   -3.34520675102212
C           1.20425507197035    1.03493836522208   -4.05104491283446
C           1.72647608346829    0.10172337554921   -4.97180405299681
N           2.20518198568164   -0.61184362872847   -5.73314376152562
C           2.04873990660221    2.16165038410441   -3.97020238548930
N           2.78998380010541    3.03913793037842   -3.96311285662890
C          -0.81914140554137   -0.32547660451000   -3.43869944552993
C          -1.91026412938693   -0.16030012387203   -2.53754886597356
C          -2.89280612191319   -1.09873152308738   -2.40692676240765
C          -2.83034647218546   -2.27251823284404   -3.19058944339094
C          -1.74314848349644   -2.44795918840331   -4.09453191164887
C          -0.73941391005809   -1.45743938338955   -4.20572111972150
C          -1.69128375011194   -3.62191834495468   -4.87284925761062
C          -2.66583255463676   -4.57694568343455   -4.76557354943459
C          -3.73597450478576   -4.40253392244811   -3.87574508770463
C          -3.81626615164948   -3.27468679941809   -3.10434447688693
C          -1.76961507277901    1.12587725215209   -1.84413615580372
O          -2.51960380065416    1.57811449800226   -0.99501454560711
C          -0.55249032663446    1.75290791334427   -2.37696419738136
C          -0.08653674504450    2.99278775827148   -2.02953963442286
C          -0.61383957146109    3.93291560652556   -1.12630620200227
C          -0.02245789326671    5.17850048376122   -0.92616560631909
C          -0.70002396359918    5.97106877428084   -0.01639671719155
Cl         -0.19400962132887    7.55489830276611    0.40546183940030
C          -1.83315777633487    5.35899276026331    0.52280151767687
S          -2.03722094191358    3.76246459180915   -0.13499529463957
C          -2.75123231752874    5.91028493725318    1.44878026036028
C          -3.87211706697562    5.29359958130372    2.00030771604602
Cl         -4.32130242648459    3.67719302587463    1.66347371736407
C          -4.61212260576022    6.11246277704060    2.85202718566527
C          -4.07472670758126    7.37592094683635    2.97156182148979
S          -2.62747062963739    7.54942752785612    2.03441776781489
C          -4.60440927216507    8.46392362265125    3.70368700663040
N          -4.07426997937723    9.64839950699322    3.77067971671403
C          -4.83974722101960   10.47266344305502    4.48388823674068
C          -6.02730920322833    9.92886311592046    5.00762921779951
S          -6.15494179934914    8.27439058557026    4.57276702786489
N          -6.81515210310464   10.76049966698842    5.68293190210648
C          -6.30439951206513   11.95571659318587    5.72342902698499
S          -4.73147959589307   12.13659653824625    4.90157197254886
C          -6.96722309422767   13.05533114140993    6.31722004384482
C          -6.56351813113620   14.36806772621438    6.41625176760046
C          -7.53449193876415   15.17777076946939    7.00821648936948
Cl         -7.31121122116834   16.85788948723162    7.25178279609447
C          -8.69720962240239   14.50391325292496    7.37058160085289
S          -8.55147727288833   12.81303482854906    6.97715423360281
C          -9.88463601350445   15.04231034219914    7.92558972512278
C         -11.04929984920281   14.35877459246960    8.27662309793820
Cl        -11.19946617987270   12.65762801793262    8.15332882503771
C         -12.08388188154829   15.16965718811718    8.73120769362581
C         -11.75013044966659   16.51074539682522    8.74450454319622
S         -10.09906250515464   16.73776978423952    8.20697845348693
C         -12.46322964744841   17.67613059794730    9.10179030956341
C         -13.78858937048582   17.86809297688317    9.37078923745561
C         -14.35925013894248   19.16746844723937    9.70074799004771
C         -13.68073444159321   20.27280163526013   10.14232295107059
C         -14.30199470010700   21.49747775498965   10.46756006625500
N         -14.74513916335935   22.52135117317527   10.73812973501513
C         -12.29240021118716   20.34549393340461   10.38588948412788
N         -11.17977770376154   20.48002107171562   10.63697358231590
C         -15.80640634343694   19.06966257411590    9.56007641166395
C         -16.13874061114354   17.71369764027936    9.28527603821391
C         -14.91067878174263   16.90408388659206    9.22297232553968
O         -14.86305684081964   15.70138520761189    9.07279929109538
C         -17.42974720081359   17.30605951998650    9.10998301389701
C         -18.46900842916959   18.25905508984298    9.19314089262255
C         -18.14475868164030   19.62116376417259    9.45793531809673
C         -16.79823943199439   20.01122384045065    9.64197457555819
C         -19.18944607398153   20.56494136401597    9.53172139832381
C         -20.49150359207847   20.18358989186332    9.35388423696001
C         -20.80938810068768   18.84208225455281    9.09409893233843
C         -19.81965151005373   17.90019128048490    9.01591745860484
H          -3.70833610960849   -0.94616129536154   -1.71568375513900
H           0.06761499506671   -1.62237997340279   -4.90142366265181
H          -0.86552998318732   -3.75223385256268   -5.55677172316594
H          -2.61702008963266   -5.47256920371725   -5.36650373047412
H          -4.49628700542256   -5.16581086448166   -3.80412811785926
H          -4.63774753904271   -3.13446335742059   -2.41705798453813
H           0.81679467860249    3.33651407013733   -2.51860598082569
H           0.87059775088332    5.49035893169489   -1.43715780007473
H          -5.50785893685894    5.79532590511481    3.35363357288092
H          -5.61297783360778   14.72985817994299    6.06966144344816
H         -13.04678479106797   14.79702561437508    9.02837315549859
H         -11.83808579455293   18.56209931130718    9.11270319802809
H         -17.65409524675682   16.26952618447226    8.90619883844901
H         -16.58595289612249   21.05068606236166    9.83494099347242
H         -18.94012985765773   21.59635921317124    9.73335069774732
H         -21.28437984319689   20.91408632834372    9.41249796193277
H         -21.84212560517778   18.55891729113388    8.95580190289071
H         -20.05794240726768   16.86575233206931    8.81583553291840
