113
 SCF done       -207.492669592974          0.000658746725
C           2.32719378012701   15.32014014432150   -7.43321440416649
C           2.88838553191480   14.76603808723303   -6.31113399797463
C           3.53175870823661   15.51621173404573   -5.30685035569771
N           4.05843325249412   16.08204596879542   -4.45797816885145
C           2.98116003010062   13.37724646432050   -6.08986977589925
N           3.12054857667263   12.25319697384524   -5.89929252557599
C           2.46968911151385   16.71232890098318   -7.84383721866505
C           2.25223987387066   16.79198660394461   -9.25093686673642
C           2.36704592107345   17.97228132449928   -9.92664370073012
C           2.69977064249818   19.14599776581090   -9.21263237403103
C           2.89942118581199   19.07501649619963   -7.80359865341112
C           2.77994401446700   17.83747857931121   -7.13002902555612
C           3.22473762234452   20.25421308342205   -7.10339793307404
C           3.35258963669656   21.44689480488191   -7.76174529644944
C           3.15786345771753   21.51577917765363   -9.14919417531669
C           2.83825445541262   20.39009798309320   -9.85886890411960
C           1.90009461649372   15.45574213250189   -9.76605306933872
O           1.70181139513038   15.12326860182154  -10.91301658066901
C           1.77612092065950   14.59493323616680   -8.55757651032232
C           1.15651760795290   13.38560257614639   -8.64126665833722
C           0.58479235123449   12.61912545412102   -7.60029717034290
C           0.38593760794082   11.24285905725618   -7.60907983495468
C          -0.18352212770172   10.78401929651497   -6.43583391763884
C          -0.48545937876237   11.81691558338509   -5.53970323671591
S          -0.02758945837382   13.35672887179554   -6.12698237026413
C          -1.05988402348280   11.27305112581416   -4.37459869166862
C          -1.10073436199743    9.87580313484783   -4.50726493401971
C          -0.53674870994551    9.44252105360187   -5.83992218324814
C           0.72475099358139    8.59285307517485   -5.65514753720992
C          -1.57988837678765    8.69772321654701   -6.67632961067540
C          -1.62152575404522    9.25274478850240   -3.39190610764367
C          -1.98904158894318   10.17135983947931   -2.40841641010044
S          -1.68551474629601   11.83248470769944   -2.87795022520428
C          -2.52727463209811    9.91224882622524   -1.14125791774766
C          -2.91573153218050   10.87928643069795   -0.20584714787896
C          -3.40122290443191   10.31796074399763    1.02165196541008
N          -3.81207045736412   11.09371466305811    2.02361075166100
C          -3.75531101305572   12.39486281869959    1.82969469428396
C          -4.21521305785056   13.26028484946267    2.94310776317106
O          -4.63342177942546   12.81330661465742    3.99092802219513
C          -4.12774548641781   14.70716550229157    2.68342709942691
C          -3.68383319727083   15.22986455883203    1.53543406962799
C          -3.23158582022352   14.42247127421224    0.39001660485969
O          -2.85562381715733   14.92474328023431   -0.64924220611352
C          -3.27646504506735   12.95548833431406    0.60085433288490
N          -2.86351689972030   12.19645480735475   -0.39324674732131
C          -3.38535897127516    8.91854413570131    1.03433418425077
S          -2.78179765791908    8.31903694484600   -0.48620905184433
C          -3.76586578023329    8.10437742225397    2.10967037504057
C          -3.75072255756862    6.71107311272083    2.17693985162161
C          -4.16605037779768    6.25228648070565    3.40982518779155
C          -4.50121616263208    7.29455127214386    4.28988391726818
S          -4.31012927097280    8.85439814003312    3.59609647297545
C          -4.89628338667084    6.73728059526174    5.52179747777570
C          -4.81796111696630    5.33541334731729    5.43839687374814
C          -4.34455210597138    4.90636745284474    4.07046421260217
C          -3.01917733211133    4.14424399037296    4.15660044663397
C          -5.40619913316037    4.06524831080376    3.35613194913280
C          -5.17871279267875    4.69912206260280    6.60501259571721
C          -5.54305158937720    5.59607649559442    7.61052016312125
S          -5.41874941007421    7.27200844319853    7.05550690144008
C          -5.95362344984978    5.41675705453594    8.94052382786457
C          -6.19928638614463    4.28570165987352    9.67994453904712
C          -6.59693717531445    4.32206286334319   11.07828816024133
C          -6.61375756796028    5.41107808367298   11.91350562999759
C          -7.00691877237811    5.35953703872311   13.26744921033818
N          -7.31488593486768    5.39634126236702   14.37322156035614
C          -6.22363865998994    6.72807983596169   11.59206201149608
N          -5.91717104371443    7.82508514799590   11.43884748491775
C          -6.93568745097507    2.96244289930817   11.48641182220478
C          -6.69199023244707    2.09263358712366   10.38851650401059
C          -6.20049076741050    2.87223545798975    9.24009836418644
O          -5.87668773256340    2.40365593107738    8.16514979449412
C          -6.90790065598456    0.74738486230080   10.46606107949155
C          -7.39034780859954    0.19689462029816   11.67419947189307
C          -7.64039134365745    1.06016747331166   12.77910101968726
C          -7.40683569026197    2.45048058373500   12.66623870597407
C          -8.11987109295062    0.50141386355150   13.98116955499678
C          -8.34104667237684   -0.84470552374724   14.08865888249531
C          -8.09551170407165   -1.69355344455114   12.99923870007881
C          -7.63062027406386   -1.18357267277325   11.81742343791839
H           2.20845957588579   18.01182409781601  -10.99412906628638
H           2.92591763666375   17.81071713392567   -6.06134114059949
H           3.37701388799057   20.19494946013227   -6.03571438211852
H           3.60546837596068   22.34407039076938   -7.21678406250096
H           3.26211971110400   22.46514905171848   -9.65294275593976
H           2.68693947453897   20.43743582104327  -10.92744656172030
H           1.03401068994969   12.99146878354204   -9.64602265367593
H           0.70029912915347   10.62714665723080   -8.43225603588023
H           1.47105721703509    9.14719002849075   -5.09154702476340
H           1.14430333335109    8.33528953467916   -6.62402085160544
H           0.48460865944120    7.67784296163231   -5.11958907451599
H          -2.47104221283705    9.30828987326220   -6.80240343862771
H          -1.85915747624451    7.77011636884580   -6.18313677698801
H          -1.17437787390231    8.46491422010868   -7.65752034658114
H          -1.74358840092235    8.19274397416101   -3.25754567957053
H          -4.45530099576913   15.33758234722967    3.49916644481481
H          -3.63833504823205   16.30020975517711    1.38543765389705
H          -3.44119002306188    6.10229575548030    1.34623436232465
H          -2.26814513284651    4.74685510398516    4.66211820083647
H          -2.66052961942498    3.90373334514411    3.15896790481982
H          -3.15903442208993    3.22164127613476    4.71359099116063
H          -6.34195292416193    4.61522848285591    3.28804633459449
H          -5.58174000931189    3.14591334633956    3.90844193239167
H          -5.07300560485003    3.81640837696134    2.35172866343989
H          -5.19349581506747    3.63636754337020    6.76132063060669
H          -6.11005806213868    6.35588542075964    9.45827495705715
H          -6.71278362333764    0.11129358800567    9.61529871629564
H          -7.61164568967825    3.07421362441457   13.52129128902329
H          -8.30710764107955    1.15892823102000   14.81747948261919
H          -8.70655365629032   -1.26311799496822   15.01453857583504
H          -8.27633329052585   -2.75328186324357   13.10106061778750
H          -7.43958923703676   -1.83196603492638   10.97462891647971
