97
 SCF done       -183.384473141770          0.000561768955
C           2.21548125314656    3.15867559511346   -3.05103434923815
C           2.55395447557105    3.84124522004867   -1.91196170402128
C           3.81584680855281    4.43402256496227   -1.70530086285244
N           4.82633940167325    4.94115291934051   -1.50704922395659
C           1.71294388160954    3.93994755130320   -0.78415015701831
N           1.08479146084794    3.99642793955784    0.17459554052218
C           3.13168958328588    2.80762904742144   -4.13218706414104
C           2.56905281700080    1.72471445309853   -4.86959616722721
C           3.22443666897504    1.15673395296488   -5.92350874088698
C           4.48741994544452    1.66365377443608   -6.30403206956299
C           5.04598579437949    2.75893586439550   -5.58418142822881
C           4.34878219350909    3.32142917273497   -4.48985798680169
C           6.30154225237659    3.26190784743399   -5.98111586240933
C           6.97633199600714    2.70873771651294   -7.03512137350494
C           6.42680133137067    1.62852036694887   -7.74151596936752
C           5.20907122793799    1.11713223447690   -7.38348801278302
C           1.24327040275453    1.39793301099833   -4.31610243982472
O           0.49274678879733    0.50653354604133   -4.64742743639684
C           0.97948476668804    2.43992743561324   -3.28519390555773
C          -0.28379909662687    2.59880642578673   -2.81236877362815
C          -0.88002405481992    3.71725288318478   -2.14746407277766
C          -0.45543163158411    5.01995056151270   -2.38152104265009
C          -1.15602376631159    6.11829350044912   -1.89852925327313
C          -2.31081550604001    5.97132300506397   -1.14556429076977
C          -2.69994894909049    4.66819837355120   -0.73529778474061
C          -3.62252141316061    4.37188548652552    0.27491083201204
Si         -4.00727314392236    2.63310852413305   -0.04320688444557
C          -2.37072697688517    2.28048242241054   -0.73731346738779
C          -1.98566577506182    3.51255503630029   -1.27069677267222
C          -3.11937183887225    7.13311606512937   -0.81698145533702
C          -2.56459859454174    8.33660026991172   -0.34375910361876
C          -3.37504186016503    9.50500789268641   -0.08764576002447
N          -2.80878897856549   10.60087123676763    0.45052832386773
C          -1.52756552202540   10.60894922097195    0.69834286865425
C          -0.71167317641038    9.46157276643521    0.39920037113003
N          -1.24194356776816    8.37537556488341   -0.09408834719657
C           0.68503901824575    9.51656365300118    0.63508944664148
N           1.80955796946632    9.62020252983435    0.82694218333373
C          -0.94146150591018   11.77693423146799    1.24734682597437
N          -0.42852744094693   12.71259190834873    1.66417965039421
C          -4.76089417521559    9.52958469962895   -0.34433800037939
C          -5.31595269147251    8.32001249164534   -0.79635151119155
C          -4.50878076510323    7.14189312320680   -1.03009615298307
N          -5.24059885225662    6.13419433703610   -1.52165019461420
S          -6.76255423446788    6.61380155511873   -1.66503063112520
N          -6.59606610248531    8.10977329359616   -1.12388912489459
C          -5.57305628940375   10.70743916552843   -0.10143155695951
C          -6.80831754216787   10.56371420446891    0.52591805944610
C          -7.52081341568974   11.65965526136999    0.98499452848420
C          -7.02981902199814   12.95861554974340    0.83916354207363
C          -5.94383110552025   13.15911943270849   -0.05870483646059
C          -5.62354296938455   14.36797441094703   -0.68177012801029
Si         -3.90000358520058   14.08641908706012   -1.15522631022167
C          -4.16759344159469   12.31786885284247   -1.43811853551401
C          -5.16161085544446   12.00665872119312   -0.49956166983748
C          -7.63532916988704   14.00408304619608    1.59728006399206
C          -7.01169002713928   15.08498006193571    2.15657384535487
C          -7.67420194593429   16.15864256501848    2.87545469407484
C          -9.02147330549023   16.41457515947922    2.90267673018404
C          -9.60629383469651   17.49573627294101    3.59385374903275
N         -10.14736388473637   18.35183457615243    4.13526640361068
C         -10.01216209022248   15.66560370505764    2.23461999269674
N         -10.88011066669707   15.12248556846377    1.71328512560614
C          -6.64628566659427   16.97847254066381    3.50596158006736
C          -5.37151963103710   16.44942677201456    3.15703866512338
C          -5.54648662297808   15.26242885757094    2.30359178471135
O          -4.65534656552686   14.55477293007653    1.86969382490521
C          -4.20965660700748   17.01031024677292    3.60193629416142
C          -4.27086838368996   18.15373755413441    4.43046822382765
C          -5.54230846935919   18.68783490519353    4.78732505810338
C          -6.72897902863971   18.08153420682234    4.31314932261220
C          -5.59204703842224   19.82512617627430    5.61826092688287
C          -4.44188018188112   20.40940658511867    6.07513863952512
C          -3.19054630207387   19.88301315467735    5.72269556612770
C          -3.10676851906673   18.77941173112369    4.91726119757930
H           2.78438661811177    0.33098427927270   -6.46277768591503
H           4.79154939650336    4.15448360179705   -3.96640743442593
H           6.72232743103226    4.09141728644848   -5.43195335292538
H           7.93838474318388    3.10028593922798   -7.33013885646829
H           6.97285267461905    1.20387874645134   -8.57068287584318
H           4.78048555097985    0.28548847801326   -7.92366339839599
H          -0.95786794997455    1.78420581656216   -3.06344374303234
H           0.39167210770062    5.19361066388751   -3.02953674460842
H          -0.82538399065208    7.10797593461735   -2.17247995832226
H          -4.22992343600885    5.15242192401571    0.70284793673509
H          -1.94445835520178    1.36185916711617   -1.10692838314185
H          -7.17670580024762    9.57185102478758    0.73629828078299
H          -8.42343816028896   11.50016510238220    1.55765405189717
H          -6.12843781136439   15.27553050915944   -0.39109080392964
H          -3.49875135496742   11.55387586191296   -1.80096470093981
H          -8.68265864264476   13.85361414595632    1.83284548333603
H          -3.25571555877214   16.58637255593881    3.32502914510388
H          -7.67570871297722   18.50563482286140    4.60771505771018
H          -6.55825590442937   20.22698606554829    5.88633618563807
H          -4.49069604312852   21.28058347192710    6.71118984020975
H          -2.29302501882268   20.35562128638551    6.09292097261068
H          -2.14598603196962   18.36868073250694    4.64335754856812
