150
 SCF done       -316.963975791823          0.000700273655
C          -5.62508281721271    0.93429418287044    7.69837693235124
C          -6.86750596708662    0.91603521124912    8.27564920358512
C          -7.33790168350243   -0.12958714122420    9.10007848024368
N          -7.79025360366593   -0.94071304612798    9.77481349768719
C          -7.86199867736461    1.91363713416714    8.17898539960955
N          -8.72992401795532    2.66614695421469    8.17689459835355
C          -4.60973150369717   -0.09558309607056    7.88153141181725
C          -3.41945955352907    0.32350451584003    7.22547131480982
C          -2.28377767200179   -0.43445713684449    7.22945550976351
C          -2.28798316050865   -1.67718410508873    7.89988636507552
C          -3.47758316747305   -2.10879406698932    8.55471867694555
C          -4.63642173457943   -1.29962866259346    8.53573101549447
C          -3.47344658272705   -3.35243288099508    9.21893532660693
C          -2.34961654703050   -4.13267627808094    9.23691951087189
C          -1.17879911414780   -3.70633290728469    8.59204612072867
C          -1.14856179772749   -2.50473479624315    7.93792147617368
C          -3.63675270845224    1.63174213296071    6.58874838181946
O          -2.79506187323236    2.27016914913879    5.99059927670612
C          -5.06144392480591    1.97376968040999    6.84188012559628
C          -5.79786752473966    3.00858858770457    6.34297003750282
C          -5.45968298325080    4.08485974479861    5.48733142912363
C          -4.27511554904807    4.48489133756830    4.92072998282126
C          -4.39015339388319    5.62702779592199    4.10350406748032
C          -3.36226991881265    6.29118318877355    3.39369959487391
C          -1.99895926772581    5.80833739690877    3.36650598385778
C          -0.84794025511838    6.54805327656573    3.37345116518592
C           0.31007543486026    5.74944187422900    3.28585201117938
C           0.06544976318990    4.40793056784675    3.19470979938615
S          -1.63475810826794    4.11018432887961    3.22886764560788
C           1.03663804951382    3.29101164413409    3.08503819061282
Cl          1.89408165361609    6.42395402511164    3.29175237377331
C          -3.73399001062955    7.44064772261724    2.70423806699521
C          -5.06969974470323    7.90826713928533    2.64744910695745
C          -6.09476914436474    7.25224733420310    3.35554836402168
C          -5.72052421460915    6.13115248738384    4.08308608636659
S          -6.78637334872041    5.15424778161124    5.03715560766677
C          -7.44263925947056    7.78808985314396    3.35997654444136
C          -8.17905532941421    8.24270920039542    2.30397975942243
C          -9.41802129163915    8.79106673780397    2.70205668674573
C          -9.63666918697589    8.76965070689993    4.04997034935700
S          -8.29178826455674    8.04303182092327    4.86040196481362
C         -10.80351893265814    9.28583554447480    4.80716774354311
Cl        -10.54093852399448    9.44200917041447    1.56729949957316
C          -5.18996970540511    9.08721501335215    1.88094886295140
C          -4.00503795653430    9.54554349254892    1.38263941026209
S          -2.67433936816732    8.48092338269388    1.79200369019107
C          -3.75789150690440   10.75346059079312    0.64004605030174
C          -2.55817426268455   10.73649744489179   -0.22475082872064
C          -1.50989849887799   11.63405744697853   -0.02055682522712
C          -0.39330022937773   11.64609432566351   -0.84682315516244
C          -0.31083417995595   10.74505715227672   -1.90500356072167
C          -1.33350390328417    9.82503068866113   -2.11170948311806
C          -2.43735129754016    9.82005460945994   -1.26672787106478
F          -3.42240214806777    8.94759980177631   -1.48955717956829
F          -1.25799957859404    8.96581463921971   -3.12917937095026
F           0.73925793161941   10.76949043781250   -2.72400311572682
F           0.58794471849768   12.52395311893152   -0.64253108619708
F          -1.59048398161060   12.51840551242660    0.97490095084810
C          -4.54673070050127   11.86655227741814    0.72144944305656
C          -5.62385339531176   11.95682814578025    1.73339312598660
C          -5.36128001047928   11.78352835472684    3.09374195127030
C          -6.37580671688643   11.81418746446105    4.04245262080645
C          -7.68907856976530   12.05213051614571    3.64353612388928
C          -7.97132410353508   12.26868052258544    2.29876218668020
C          -6.94303047757141   12.21699093112033    1.36226679826068
F          -7.24456688120173   12.38351836817151    0.07218425030552
F          -9.22033478716503   12.51922736582732    1.91179011522594
F          -8.66938430524285   12.07004457011799    4.54526711191648
F          -6.09911576813760   11.61329154867750    5.33033685483952
F          -4.11073564843968   11.55680084011581    3.49912900092749
C          -4.43026995048136   13.00803642857602   -0.14985628252206
C          -4.89872797639426   14.26906627278685    0.09473029874024
C          -4.67461161771038   15.18099131066893   -0.96393232735164
C          -5.06937015647018   16.53233143083503   -1.04721513470918
C          -5.71309195063603   17.19261175958037    0.06937369903911
C          -5.39574570722045   17.09918108863160    1.39494169683503
C          -6.24674619296997   17.87263596232745    2.21318169800327
C          -7.21551911397282   18.55422419978049    1.53438907497859
S          -7.07703705047984   18.25061165337701   -0.16368581950031
C          -8.26838829383226   19.45348418501269    2.06853023388856
Cl         -6.06604025034071   17.93247022204175    3.92579065999979
C          -4.80151379963105   17.18125387041676   -2.24804713748337
C          -4.11154982889835   16.56944438485388   -3.32896848594387
C          -3.70816697233693   15.21856252774973   -3.24374450753557
C          -4.01978405638223   14.56514432137680   -2.05770005905058
S          -3.70695316725965   12.88555429047034   -1.73919979685070
C          -3.02499338022086   14.55087399477991   -4.32934960182240
C          -3.20758869867871   14.68508286426745   -5.67716399137691
C          -2.34709810425819   13.85347363135736   -6.42643954062736
C          -1.50015403160466   13.08597140518181   -5.67869379456905
S          -1.76937495086328   13.38076674687097   -3.99538696292076
C          -0.48512181760525   12.10159086487042   -6.12774211485547
Cl         -2.37090271524544   13.82171445112473   -8.14563527916390
C          -3.90124910857425   17.46476594456899   -4.39774683564967
C          -4.45197963744038   18.70321097551250   -4.19725554848841
S          -5.19027659300489   18.83539774625387   -2.60707193050054
C          -4.48888567034115   19.84346236001777   -5.03961917822887
C          -4.41608464742311   19.88647657935955   -6.39955486022999
C          -4.44215529606590   21.11251869469184   -7.18417421996826
C          -4.12668174390426   22.36666053054412   -6.73465975269627
C          -4.13795983643407   23.51926323937212   -7.54847441509367
N          -4.13351511261871   24.49114868263898   -8.15918263234437
C          -3.70705247492903   22.67571083136924   -5.42288302117522
N          -3.33937998273797   22.99871313248687   -4.38412461300896
C          -4.77575070811521   20.75786873522763   -8.55624492769643
C          -4.84232086498100   19.33872925656667   -8.65028855367856
C          -4.56276674432450   18.73860193649845   -7.33616687904657
O          -4.51875225914203   17.55212214526320   -7.08776579001744
C          -5.13346559271456   18.70564799554928   -9.82462475011578
C          -5.38330673267523   19.47947917367411  -10.97961456980303
C          -5.33018501330711   20.90096888539302  -10.89129124401047
C          -5.02070524721697   21.52778347339466   -9.66250613341414
C          -5.59200087468120   21.66301323377769  -12.04802539519232
C          -5.89011622358190   21.05253703433752  -13.23586226607940
C          -5.93957546346588   19.65313271987289  -13.32221629292945
C          -5.69071990142213   18.88328924508287  -12.21840720649940
H          -1.39368264070216   -0.08874747689650    6.72497588341664
H          -5.51916494862918   -1.65934811220837    9.03912237774642
H          -4.37676040973157   -3.67598598214316    9.71483023336841
H          -2.35635539394638   -5.08332449762977    9.74863280365490
H          -0.30126954018167   -4.33493938041968    8.61628928783914
H          -0.25001632122571   -2.17107216354335    7.43973352536952
H          -6.84576478639301    3.01980521519212    6.61953040585712
H          -3.35438275344166    3.96555511315328    5.10822068679143
H          -0.81363762377131    7.61573221336141    3.48549805697845
H           0.97629124083000    2.82411917878152    2.10172288521044
H           0.82271919019733    2.52853174469114    3.83223884171898
H           2.04650628150873    3.66540928178924    3.23328524032413
H          -7.88259887238487    8.14705256467743    1.27545599726366
H         -10.57174758024745   10.25574818740835    5.24884946442519
H         -11.07065721483015    8.60359263923114    5.61117187740599
H         -11.65219707719918    9.40643140451867    4.13807976283143
H          -6.13484666629537    9.55939471955278    1.69620546254917
H          -5.39527057289385   14.54341549017189    1.00733503980630
H          -4.55777809491529   16.54569692783402    1.77696375133073
H          -9.25066128609426   19.15074173787841    1.70905025979212
H          -8.09463832731405   20.47946251043557    1.74427360838579
H          -8.26137850564762   19.42323945323146    3.15518238285516
H          -3.94652055139485   15.31837931648987   -6.13310998492069
H          -0.24792228974644   12.26790013733699   -7.17572877764977
H          -0.86416616283445   11.08482131127638   -6.01565264530544
H           0.42219823321162   12.18631232566829   -5.53291296635898
H          -3.32501371124512   17.22032334986707   -5.26709749949403
H          -4.66064358767350   20.77700837193669   -4.51619437147599
H          -5.17375756776242   17.62743623587196   -9.87115060949237
H          -4.99461132418971   22.60530999094505   -9.62552795419998
H          -5.55083892134932   22.73999030245854  -11.97705527390884
H          -6.08937073139762   21.64506571529871  -14.11611668122437
H          -6.17657535717998   19.18827230411555  -14.26745868538737
H          -5.72779990560502   17.80542685464117  -12.27868868401498
