111
 SCF done       -209.434727527050          0.000577311165
C           1.03660678458782    0.86208509891158   -0.27556642386997
C           0.15173365594473    1.20787414816492    0.71716030855849
C           0.21342395004049    0.70910800244531    2.03289283964045
N           0.23690142796978    0.35966708185195    3.12667349752861
C          -0.96708278447435    2.03754742804654    0.51494761574745
N          -1.90568079793771    2.68746604935055    0.38988752197298
C           2.03060993441591   -0.20450360897026   -0.17342466260922
C           2.40878512156562   -0.59582732347972   -1.49072217249273
C           3.29958875138049   -1.60499521746777   -1.71276626454684
C           3.87453601586535   -2.27221426506838   -0.60708911498594
C           3.51471991599549   -1.87422889789728    0.71249055415312
C           2.58049624315192   -0.83061596127382    0.91173302619265
C           4.10167257188711   -2.54177853895754    1.80620715758973
C           4.99884239806822   -3.55607877584930    1.60837583506174
C           5.35129013056034   -3.94821324455769    0.30866244952520
C           4.80053752237078   -3.32010764115952   -0.77549551801414
C           1.71161751191493    0.25910551355837   -2.46796274550386
O           1.74442631014397    0.19205373487535   -3.67654788353028
C           0.98943619355825    1.27699273135016   -1.65572601751474
C           0.51367912549154    2.38936320787816   -2.29300974807808
C           0.15691368932388    3.64927794382677   -1.78454645396473
C           0.43134486538783    4.23882799618222   -0.54870409762021
C          -0.06002741567549    5.52339756362664   -0.45432059506056
C          -0.71918068379669    5.94290069640645   -1.62165321294312
S          -0.70639503011487    4.75374449078805   -2.84680838243512
C          -1.20760047945946    7.24838495994265   -1.43315646030580
C          -0.87275463744311    7.67417319578904   -0.13885917164494
C          -0.11483100418651    6.59910248398937    0.60427152639405
C           1.28273974321130    7.07697372877578    1.00639157684456
C          -0.89829879100769    6.11436385918683    1.82822941790367
C          -1.30998172443330    8.95464322755395    0.13111658199985
C          -1.97880794722469    9.52937412353756   -0.95031336919999
S          -2.06187355311243    8.43880506047782   -2.32345752807453
C          -2.55505168248290   10.82286738462453   -1.05209457631960
C          -2.57434836099811   11.78636258392097   -0.01305230664531
C          -3.17886284863540   13.07798838966377   -0.19350296135705
N          -3.17671352010343   13.95835655244079    0.82644096372868
C          -2.63292334250934   13.64132739287226    1.95631241087172
C          -2.03426585853557   12.36997312689112    2.13144562042004
N          -2.01510256950071   11.49478982394040    1.17951865782510
F          -1.46385001016767   12.02962277100685    3.28763497262334
F          -2.65249813261758   14.54017160055526    2.93542490686056
C          -3.78579462322090   13.49475587420947   -1.40216246271632
C          -3.76720340430486   12.53582270225791   -2.44375222264514
C          -3.16854961518389   11.23725902722406   -2.25850747941947
N          -3.26203133952821   10.48952986347334   -3.35648630203874
S          -4.01918448264301   11.31746940556155   -4.50346113066230
N          -4.26864594430399   12.66873477429443   -3.67269793602461
C          -4.36777437483130   14.77969656023611   -1.54556121999110
C          -4.96023414126577   15.29627388273182   -2.69938759605921
C          -5.43928256313888   16.57570967357826   -2.51619294198629
C          -5.22193886511621   17.05409736290856   -1.21392144311249
S          -4.40985924335493   15.91540182525335   -0.21502671495174
C          -5.75117240518521   18.35494915773877   -1.11773174687992
C          -6.30785115421057   18.71945528425687   -2.35836322425657
C          -6.14599114207908   17.60541676211099   -3.36409946512461
C          -7.50354964706378   17.09556738929741   -3.85485271594700
C          -5.27630115402075   18.04725190180369   -4.54480274220449
C          -6.86169983891124   19.97948989443022   -2.35838299173808
C          -6.74466776819430   20.61460077219735   -1.12041916309392
S          -5.91595573625450   19.58327514714425    0.05581849041237
C          -7.16617239899698   21.86736631953607   -0.65009329235343
C          -7.80405680169411   22.91475859641108   -1.26971141762446
C          -8.18110061871416   24.13696617959464   -0.57779921574285
C          -8.09241428359195   24.39985329287904    0.76676074757901
C          -8.48643581220759   25.61802741924122    1.35957542167610
N          -8.78307625666015   26.57821526065696    1.91549444547343
C          -7.62881312589805   23.52671376446457    1.77293454071780
N          -7.28357078650328   22.89357182506172    2.66796075448415
C          -8.72609734770934   25.06438979970158   -1.56452837674988
C          -8.73030857708156   24.41839411844030   -2.83097304934173
C          -8.17956514042545   23.05980779752971   -2.69435135891147
O          -8.07009853195672   22.25649445778304   -3.60154816897986
C          -9.19164089085431   25.03300371005930   -3.95869789383468
C          -9.68173258222655   26.35488518562472   -3.86989686691204
C          -9.67985363143275   27.01196164354623   -2.60620789388717
C          -9.19410312889107   26.34722401899251   -1.45619241092051
C         -10.17167466477282   28.33066611465945   -2.52698754444499
C         -10.64357653980667   28.97033763933320   -3.64085601903973
C         -10.64406555232801   28.32219205535129   -4.88490973211378
C         -10.17300727717385   27.04213789212099   -4.99695133336181
H           3.56443794851840   -1.89158417325766   -2.71969118083801
H           2.33176150300984   -0.54592705141785    1.92228409741330
H           3.82477781664576   -2.23874682456141    2.80540469170801
H           5.44150781439527   -4.06234829248529    2.45315701292891
H           6.06114945517593   -4.75004630214286    0.17038923017715
H           5.06782335813214   -3.61755816943779   -1.77903999919232
H           0.47936847681422    2.29522860911095   -3.37508958552534
H           1.00637427795844    3.74616898382351    0.21437315210025
H           1.83314970299894    7.41984081030275    0.13296409509743
H           1.83587419719219    6.26494270591678    1.47173917147696
H           1.20387248508574    7.89809957728848    1.71391939910485
H          -1.87046414753066    5.73214984096284    1.52696175837165
H          -1.04128377922472    6.93429284771816    2.52714843342488
H          -0.35563026999222    5.31532962822185    2.32696400894453
H          -1.16917709507296    9.48336820222974    1.05375568995107
H          -5.01626913362358   14.72588829913077   -3.60727880962970
H          -8.11791378198372   16.78412915513561   -3.01321212379529
H          -7.36419172696437   16.24609317730554   -4.51850616513043
H          -8.02276687309285   17.88422748953088   -4.39304948258592
H          -4.31142053903034   18.40395501752429   -4.19163025126955
H          -5.76803232546537   18.85076830508272   -5.08681583305746
H          -5.11347279193545   17.21138392706906   -5.22035641024139
H          -7.33699496459743   20.45552546155884   -3.19604246758317
H          -6.93252651661302   22.01818144590381    0.39723295186848
H          -9.18318364299225   24.51575283284004   -4.90683403637526
H          -9.20510074337242   26.87712127850600   -0.51746576330419
H         -10.16967596178406   28.82572689877071   -1.56688790317627
H         -11.01956266874074   29.98003157329681   -3.56927197144738
H         -11.01943148466806   28.84199512754803   -5.75381976393664
H         -10.17052788605226   26.53738678928410   -5.95223004761081
