136
 SCF done       -262.958901643909          0.000455468730
C           0.33073562326082    0.03911623545152    0.58379152117164
C           1.13446807995111   -0.21222310883399    1.66545063574668
C           1.66153242382732   -1.48316763391379    1.97904549470195
N           2.12241553134255   -2.48617135669531    2.29456855864678
C           1.56941059936296    0.73616115015621    2.61474900104042
N           1.97360252581279    1.44021210909441    3.42774029805135
C          -0.08538230359547   -0.95224568396299   -0.40247050783986
C          -0.85494511876963   -0.29936140803692   -1.40730023450764
C          -1.38625010923515   -0.97505516380198   -2.46758174467938
C          -1.17378475912471   -2.36776274735633   -2.57128103486104
C          -0.40898935741533   -3.03117592556181   -1.56878181347117
C           0.13311268664687   -2.30221500245733   -0.48526552797500
C          -0.20826963417076   -4.42221513464285   -1.67822552253520
C          -0.73710697244200   -5.12559713033025   -2.72615227233517
C          -1.48927025269845   -4.47106713406960   -3.71292954856853
C          -1.70239143186180   -3.12124254417204   -3.63755690069341
C          -0.96042388409363    1.13109395121144   -1.08521313541469
O          -1.52959587078527    1.97943413734648   -1.74470263738649
C          -0.24469225172332    1.31621574521421    0.19229963494624
C          -0.17746870698386    2.47236148232016    0.91535284046938
C          -0.72292886677863    3.74935261292627    0.65913251498292
C          -0.59478407952083    4.78420070336058    1.56674390736487
C          -1.22178415393033    5.97578719533100    1.17244743473686
C          -1.28602219146673    7.20041753906438    1.88034565317530
C          -0.55974541392925    7.38421600845560    3.11821595492675
C           0.71186883092028    6.97758804774658    3.41009207684496
C           1.10970546149521    7.32897614848021    4.71760361727421
C           0.15757680879100    7.99209581027663    5.43722850591674
S          -1.26831923892322    8.20877926119388    4.48021444318161
C           0.22807479062197    8.49409648257383    6.83217081864099
Cl          2.67054121728303    6.94631099858067    5.33657700944095
C          -2.06636966821467    8.19483425652482    1.31170055353157
C          -2.70734724825338    8.05975005345343    0.05045298759521
C          -2.59158595906688    6.86113393136825   -0.68217611306177
C          -1.87149870128756    5.82886020579650   -0.08167367582359
S          -1.64188715409752    4.23789430157092   -0.74796637445858
C          -3.17258278003633    6.69639657897190   -1.99868906608734
C          -3.73477108180657    5.57388596374531   -2.53854157387230
C          -4.14748090982420    5.75851399364220   -3.87477912424628
C          -3.89942154268393    7.00250774933219   -4.37864932261594
S          -3.14417414827366    7.98686455273690   -3.17356560192627
C          -4.18956738104844    7.53224791703351   -5.73504725699418
Cl         -4.90206755111754    4.50670219331023   -4.78258536091964
C          -3.43809030449742    9.22169269198271   -0.28888912393807
C          -3.36057138365395   10.21586631302248    0.64380930645253
S          -2.36007919944890    9.76427791598589    2.00807245698720
C          -4.00095848997735   11.49687821991712    0.60142988608968
C          -3.96443812848441   12.38572781801432    1.67284260007772
N          -4.53867455938096   13.57807296256374    1.72026585331029
C          -5.21442305003632   14.04446882177069    0.68343875596660
C          -5.32948241485303   13.25431411568345   -0.49043714170893
C          -4.72307378795635   11.95320071977463   -0.53114963422229
N          -4.94184552270228   11.34790898226775   -1.69904890498259
S          -5.81344306523031   12.31956222777271   -2.63705872490905
N          -5.96403803053094   13.55327852024197   -1.62011035301764
C          -5.82249236444441   15.33759883121569    0.78431341375120
C          -5.85803829740784   16.12635917080354    1.90181325652470
C          -6.54116551117913   17.34584181510714    1.70554023874171
C          -6.73850075553626   18.38837460523695    2.63658531031833
C          -6.34084438549917   18.23867553785880    4.02043676076028
C          -6.47080635950746   17.13352665983281    4.81334366426802
C          -5.98646919976121   17.34358630546910    6.12181787436164
C          -5.47987859988679   18.59173572265615    6.34321408585392
S          -5.60893443721557   19.54817903152788    4.90682168872898
C          -4.89391898316219   19.15145893114529    7.58668573798437
Cl         -6.03903413648858   16.11515303487736    7.32781269059096
C          -7.35039588639285   19.54019337264213    2.15637666254836
C          -7.79405579968651   19.68493605761186    0.81272836650888
C          -7.61263789037451   18.63185351262729   -0.11375112457773
C          -7.00186642325719   17.47956078889007    0.36855846797725
S          -6.62911654485374   16.06199059708545   -0.57786889183960
C          -8.00249478388587   18.74474776242795   -1.50245203767233
C          -8.51827340473277   17.76949209736297   -2.31108260261884
C          -8.72297259255663   18.21405799691713   -3.63271111653391
C          -8.35680887979233   19.51104932880904   -3.85694982234249
S          -7.75254717730403   20.21664663308902   -2.40125970000607
C          -8.42896013421259   20.29460828735028   -5.11580124374482
Cl         -9.37814896714822   17.19286416093596   -4.85426334042700
C          -8.44258155658821   20.91647918475423    0.59812507306607
C          -8.48874290994770   21.72127383121632    1.70985344661705
S          -7.72838424955069   20.94727096333027    3.09835698568816
C          -9.03597919323592   23.00524952116934    1.93775720011213
C          -9.59672939866144   23.91714025697302    1.09001238574779
C         -10.09472455210888   25.21319207945236    1.53530122562021
C         -10.36810211480576   25.59463598444307    2.82254352625356
C         -10.86752556801972   26.86647804633484    3.17637161709802
N         -11.27376719011360   27.87873495681298    3.53468054280052
C         -10.24540559208249   24.79102928658074    3.97666003761085
N         -10.19866917747499   24.21233253846332    4.96779965075378
C         -10.33212919484610   26.03254373573317    0.35359080949342
C         -10.10743642685895   25.23092633283731   -0.79971954573086
C          -9.70154016551526   23.87532265070300   -0.39135988617585
O          -9.50470467476825   22.94359141657781   -1.14408007988542
C         -10.26310536995733   25.72217662022304   -2.06380140132495
C         -10.65178321187103   27.06917208362622   -2.23578250420984
C         -10.87015044796342   27.88203963859018   -1.08621807496673
C         -10.70502503033489   27.34305444720510    0.21022653535699
C         -11.25393897843667   29.22629597421286   -1.26851550113808
C         -11.41624100146326   29.74394264001916   -2.52463856673083
C         -11.20140211568695   28.94242829832252   -3.65584262651740
C         -10.82733963955864   27.63370238324940   -3.51444712909485
H          -1.96460296894521   -0.45331987114405   -3.21559233446829
H           0.70517139992419   -2.83628083910060    0.25638977362795
H           0.37193444114106   -4.92172691857092   -0.91629941755770
H          -0.57880676456895   -6.19104637149326   -2.80022498317672
H          -1.89937024154921   -5.04169462279301   -4.53272331614011
H          -2.28097986344687   -2.61156272946779   -4.39406190589284
H           0.35825315331367    2.43128566874384    1.85635615261699
H          -0.08610616154870    4.66001660582134    2.50595573256627
H           1.36334549385495    6.48823023681411    2.70994915806809
H          -0.51740646901313    8.00082557494797    7.45537562665342
H           0.03497324847092    9.56560215136467    6.86412302391264
H           1.21555818425657    8.29828448002982    7.24226655530079
H          -3.88381494198372    4.65318791560303   -2.00682625125478
H          -4.79617355969877    6.81660870465105   -6.28458218660497
H          -3.26471458298955    7.70341835970689   -6.28631230089438
H          -4.72237105749981    8.47970857171652   -5.67119958331716
H          -4.02502595624099    9.33336597188999   -1.18080078348346
H          -3.43130287508475   12.10706294069231    2.57292359050116
H          -5.37857062852988   15.82864647308057    2.81475547913472
H          -6.93324117590687   16.21667722029659    4.49833366028123
H          -5.49781335651239   19.98112195656106    7.95339079422734
H          -3.88766849735837   19.52562041781922    7.40270868897281
H          -4.85208546957643   18.38054962568439    8.35203876910665
H          -8.78147458873018   16.78325655340177   -1.97781704556992
H          -8.96047499801237   19.72524200418599   -5.87436140587454
H          -7.42865404125554   20.52277901468886   -5.48433218097232
H          -8.94683474026502   21.23718613648513   -4.94573881734704
H          -8.88180830773353   21.21338262984137   -0.33525726214516
H          -8.95823315183110   23.30884635056944    2.97568965920459
H         -10.08895092764690   25.09031093374182   -2.92213578943266
H         -10.87287619355626   27.98687729385741    1.05863868811805
H         -11.41945103144420   29.83893200778781   -0.39447041612832
H         -11.71143377095312   30.77443724826363   -2.65373985488468
H         -11.33366762425175   29.36737171793870   -4.63964378256697
H         -10.66033061898470   27.01177682216808   -4.38183188080036
