110
 SCF done       -192.887183231131          0.000922761074
C          -2.50747153905775    3.44497547954804    5.33088392827933
C          -3.67475754368288    4.02957554445191    4.90846559025842
C          -4.63490530107691    4.57999935228951    5.77895921565237
N          -5.44389056645524    5.05070514708967    6.44436840347211
C          -4.08322097333447    4.05323516434199    3.55996278033810
N          -4.47113756591537    4.05378124625547    2.47884875520728
C          -2.18050210955886    3.12310570209268    6.71539203126520
C          -1.20442535255137    2.08376998389411    6.71674586566689
C          -0.73422063709922    1.54636938485898    7.87965761296432
C          -1.21949866535488    2.03892730460794    9.11288681247740
C          -2.18397463851886    3.08752535720357    9.11680981160255
C          -2.65843359088864    3.62141041439998    7.89627582931991
C          -2.65598518024435    3.57181660023776   10.35340336146700
C          -2.20123893453930    3.04516422956916   11.53160164140243
C          -1.25175926280592    2.01270262047289   11.52717706516721
C          -0.77180053443670    1.52039291128479   10.34382887339810
C          -0.83773087527919    1.75801449033369    5.32459886285633
O          -0.08555273968260    0.89355245952935    4.93298376914283
C          -1.54452013285411    2.76720984163273    4.49224739287766
C          -1.17338224336887    2.96698358466371    3.19570032317512
C          -1.37880374970389    4.10721283413861    2.39000430776079
C          -1.34779463047967    4.15184610697087    1.00033990251744
C          -1.56965305919538    5.42356693000351    0.50351128790453
C          -1.71639398290038    6.37862093762357    1.51507026587291
S          -1.62063398222392    5.70623753432548    3.08337045071023
C          -1.92280220021168    7.64387057600774    0.92810203274865
C          -1.93226264309707    7.50673140794929   -0.46065998024738
C          -1.71726941704404    6.06464216125087   -0.85670272569228
C          -2.94651216006146    5.50831522747427   -1.58263547518479
C          -0.45782981530928    5.89557856418441   -1.70940720808275
C          -2.15299171182805    8.70849315907619   -1.11919808251085
C          -2.30640094561853    9.77436028363995   -0.24850956555140
S          -2.17120178789196    9.26097937342210    1.42998485831874
C          -2.56341394224054   11.15632161520876   -0.53234304358566
C          -2.52010545050882   12.09968021325131    0.48755558353223
C          -2.80599826442125   13.43641691422382    0.27897846748401
C          -3.17047251169007   13.93507014483317   -0.96542047050453
C          -3.19678522975133   13.00985595823506   -2.05431666765474
N          -3.48765641027158   13.44663283071223   -3.29281860436795
C          -3.50275245200315   12.58731006110022   -4.27681731285186
C          -3.22951298695524   11.22826562397992   -4.06331318889963
N          -2.92976841609278   10.77248707126909   -2.87605696601385
C          -2.89281489253273   11.63020000592399   -1.84076043921342
C          -3.51030719007262   15.31987058623223   -1.12107471829269
C          -4.15702231327026   15.94844528549755   -2.17161648826925
C          -4.35851903134058   17.30225921038900   -1.94166953295866
C          -3.85320605008064   17.72512767742370   -0.71083303862974
S          -3.13674896929140   16.44624546566999    0.17648327408370
C          -4.10965515030294   19.10296872658009   -0.55175782008084
C          -4.79620359798679   19.56902815417865   -1.68478467985074
C          -5.00874771027596   18.44978645427816   -2.67710837418402
C          -6.50050638267712   18.18975386161971   -2.90558197861143
C          -4.30145869633554   18.74002776602092   -4.00358588121358
C          -5.11262765098726   20.90922709027076   -1.61444716336680
C          -4.67461087318130   21.49959116470748   -0.42918647811236
S          -3.83567066046768   20.32958254152238    0.60089176051794
C          -4.75265454251065   22.80935054974311    0.06649983640629
C          -5.42841374077390   23.91570908134176   -0.38613795565258
C          -5.35520541121795   25.20987555211467    0.26867597561068
C          -4.41791820133680   25.62242292991340    1.18243956280442
C          -4.40108266041660   26.90508938897316    1.76788432670689
N          -4.33203986547484   27.92648971190293    2.28876358302903
C          -3.31571823832713   24.86891771494749    1.63692081879695
N          -2.37839756665889   24.34012427399188    2.03986798908937
C          -6.41663580503474   26.04959687664307   -0.27498607111540
C          -7.06032420488445   25.33225637273860   -1.32092756317768
C          -6.43747776015509   24.00357425579450   -1.46447325688383
O          -6.73450951409025   23.17487166850987   -2.30357585973324
C          -8.09881832231810   25.86322555120076   -2.02910685899735
C          -8.55592831584785   27.16203655908419   -1.71111858539054
C          -7.92079675117260   27.88515713958832   -0.66125399081511
C          -6.84297157829376   27.30932379983945    0.05075804376898
C          -8.38739949399473   29.17798025901583   -0.34873997589043
C          -9.43142538979693   29.73167594474562   -1.03856513922432
C         -10.05661536520800   29.01836800154912   -2.07185363030718
C          -9.62756124790834   27.76123462105454   -2.40136343344384
H          -0.00104152751296    0.75367926928609    7.86175694853566
H          -3.38196205184214    4.42139745671732    7.92466318392412
H          -3.38943127818430    4.36487326737899   10.35094362605992
H          -2.57134516909113    3.42113475629466   12.47375495941650
H          -0.90256265221611    1.60917471028817   12.46594886675341
H          -0.04064248915366    0.72511745728079   10.33472797437050
H          -0.57810706279466    2.17401976767059    2.75248617396967
H          -1.20873921289588    3.26653137085158    0.40651402174446
H          -3.82826685231921    5.60003109523243   -0.95302573512101
H          -2.79677183148408    4.45770261644999   -1.81774845455651
H          -3.11403285499685    6.05776978687906   -2.50554912713233
H           0.41041568679396    6.29088976207266   -1.18681528940457
H          -0.57155525722136    6.42893389622306   -2.64971457059059
H          -0.28856623556241    4.84270618251153   -1.92060228203811
H          -2.20904935425688    8.83869235054416   -2.18291775706148
H          -2.26046399233563   11.77703401355041    1.48534842884296
H          -2.76192804697922   14.11293051034413    1.12016170536055
H          -3.73407976803438   12.97703107647130   -5.25914980451324
H          -3.25093131144995   10.50723098656102   -4.86956856696478
H          -4.45942703586632   15.41226226844610   -3.05055669754163
H          -6.99580410602154   17.97309921345572   -1.96168826743472
H          -6.63353039624525   17.34142815963761   -3.57224958643544
H          -6.96552481138794   19.06619971927188   -3.34924371302884
H          -3.24318119743547   18.92713997975919   -3.83589269759615
H          -4.74088538704762   19.61603220532715   -4.47362880792088
H          -4.40334253625539   17.88992795436556   -4.67336888125081
H          -5.64383315676049   21.46735210401566   -2.36283446521394
H          -4.19752980842649   22.94479993484942    0.98802521159417
H          -8.56887895683882   25.29820736158906   -2.82049988398091
H          -6.38777916014521   27.88085532794544    0.84372541973231
H          -7.90188608701194   29.72352355094004    0.44719965250106
H          -9.78142105878571   30.72282563067953   -0.79140169128066
H         -10.87997495423237   29.46964187761010   -2.60528281422165
H         -10.10532280547110   27.20706778896035   -3.19626912866365
