110
 SCF done       -194.810985376305          0.000598499076
C           1.64799989767109    4.29003655183034   -5.38925001603995
C           0.32200853540818    4.10823622607113   -5.08863089245180
C          -0.19842600987141    2.92710155255058   -4.52549591371762
N          -0.66864808171537    1.99129129362307   -4.05486311703848
C          -0.67640023080202    5.05154180071946   -5.40424962891908
N          -1.51929217556222    5.77691396029189   -5.69150674100447
C           2.66748795069195    3.24722957765272   -5.37287426905474
C           3.73321702098851    3.64682028272308   -6.23194992497378
C           4.81531374226315    2.84441270602608   -6.45009567093554
C           4.88591652329847    1.59057791339370   -5.80111063729851
C           3.83086609266789    1.19316527118120   -4.92985485149339
C           2.71836915039230    2.04225342396304   -4.72701835974354
C           3.91658572734260   -0.05793005513976   -4.28635494810217
C           4.98992576442381   -0.88063793754243   -4.49461369007974
C           6.02797182821780   -0.48899751596909   -5.35292678103784
C           5.97689685545984    0.72004381962157   -5.99209017405088
C           3.44757171383953    4.98994803439809   -6.77126745084242
O           4.09202275137777    5.62641322899186   -7.57419174615954
C           2.21526100518068    5.43576722138211   -6.06547984892676
C           1.86778886901696    6.75235644998170   -6.07276716178928
C           1.03777360908937    7.45684844837314   -5.17280538523319
C           0.42038233333175    8.67764427244792   -5.41710641175780
C          -0.30919189377909    9.13148559463695   -4.33222186411170
C          -0.21241408583307    8.28340716014903   -3.22522368792117
S           0.75084059300631    6.90452312110733   -3.52783407241193
C          -0.96576872176178    8.82779523263464   -2.16104940138206
C          -1.56773244896616   10.00912741933430   -2.59192650778115
C          -1.20243343683648   10.31015425815936   -4.02509090734008
C          -2.43765171703448   10.30689316926573   -4.93025094250030
C          -0.44934507359980   11.63948222064817   -4.13038049591544
C          -2.33090318481041   10.61623455566940   -1.60388243240239
C          -2.29821474789706    9.91406134867246   -0.41190393373360
S          -1.33809803081144    8.45515778922111   -0.52972143055586
C          -2.94148801007644   10.25300689628126    0.81632760996377
C          -3.29889966094740   11.50592082917488    1.26558162576384
C          -4.00079397216231   11.45353745112309    2.51565460021200
C          -4.48561681427124   12.50522021819143    3.28928840996843
C          -5.12759517098680   12.22402360392146    4.48681337463413
C          -5.28493064252894   10.90165625985676    4.93520684159436
C          -4.78815633209452    9.85547956837537    4.19164538880376
C          -4.14836884355908   10.13446234641731    2.99113597913075
S          -3.43288250993226    8.97932098500535    1.91257902155696
C          -5.63182004393738   13.28956237784990    5.26808844364862
N          -6.04543782303353   14.15715564686234    5.89268697061691
C          -2.95582610282115   12.75037733004499    0.61647278724241
C          -3.79082523988534   13.81823545624325    0.37504913543472
C          -3.13028450476264   14.87763422554982   -0.24760257097626
C          -1.78212493475770   14.61347581787535   -0.46648321788811
S          -1.31020968433642   13.06077111879059    0.10073804359326
C          -1.19194879490494   15.72006240062978   -1.12008754204219
C          -2.17360479583095   16.70182220068719   -1.31708021881634
C          -3.50294387001496   16.24753080164644   -0.76102733314174
C          -3.96461746516011   17.16271448604611    0.37711292126193
C          -4.56896677646380   16.16921248782977   -1.85713274918869
C          -1.69688236917440   17.82551103337433   -1.96107405409972
C          -0.34338765349494   17.72520729492590   -2.27553017170290
S           0.33184517904249   16.18220770014284   -1.72918968529310
C           0.55660025529034   18.59832585318480   -2.90700896648968
C           0.37373693314505   19.81019334675569   -3.52366173114684
C           1.46341482151716   20.56980055543780   -4.11475755551397
C           2.80856618720725   20.37580241521402   -3.92618047062532
C           3.80992713063217   21.16585282437084   -4.52859397789846
N           4.67798936087008   21.76030363689204   -4.98913900838387
C           3.40316011303729   19.40932703048910   -3.08833140425657
N           3.97375398044886   18.67189109263784   -2.41658225408086
C           0.88176495583809   21.64808004621431   -4.90614319407501
C          -0.52831348219890   21.62653853872361   -4.72198341642368
C          -0.89250419287088   20.51482726852552   -3.82624123171618
O          -2.01947838284764   20.25778263721551   -3.44822696792675
C          -1.35146612233326   22.52954761337911   -5.32981943328689
C          -0.79002026024271   23.51123035185589   -6.17674241302095
C           0.62015063381050   23.53288892015761   -6.37635878901733
C           1.44720241038738   22.58778419495557   -5.72634220706461
C           1.16978324471225   24.51071970092506   -7.23001019197448
C           0.36701212490474   25.42525516428848   -7.85574395235100
C          -1.02139772643402   25.40409984517534   -7.65696851354337
C          -1.58748740948008   24.46756638653434   -6.83515996811673
H           5.60892457710839    3.16011738935830   -7.11094671325709
H           1.93602984898909    1.72346690807694   -4.05569488548383
H           3.11319096634165   -0.35616507821999   -3.62879971827694
H           5.04467150343085   -1.83850011218544   -3.99924339754035
H           6.86815430863148   -1.14990930315913   -5.50530513465399
H           6.77336285390001    1.02681077637418   -6.65428428015460
H           2.35574703560060    7.35666161311251   -6.83225648564404
H           0.48840345414301    9.16905658074185   -6.37079968476793
H          -2.94994693905072    9.35012750566927   -4.86427141152802
H          -2.14237662423184   10.47121479557087   -5.96321247490414
H          -3.12324944594135   11.09546962640902   -4.62981871953878
H           0.42179520138545   11.63479599860314   -3.47916973852470
H          -1.09867017100020   12.46012185430410   -3.83495393647155
H          -0.12035297540985   11.80292653938254   -5.15330762623853
H          -2.91057121499588   11.51104417653949   -1.73740995904065
H          -4.35637271777584   13.52753633768056    2.96804698247203
H          -5.79042114378939   10.71804837033490    5.87078643220098
H          -4.88849863496684    8.83624807314390    4.52965742027419
H          -4.84080804893649   13.79841044782572    0.60627388058618
H          -3.20566412543462   17.21310384127258    1.15470156527076
H          -4.88657536404197   16.78510973828682    0.81245716332177
H          -4.13991516219670   18.16528409782122   -0.00384275097102
H          -4.23965036577896   15.51440913062915   -2.66104012182020
H          -4.75018263875848   17.15893826197834   -2.26754594614407
H          -5.49871435055925   15.78118377748931   -1.44834146064457
H          -2.27489919787425   18.69468679002603   -2.21490645672267
H           1.57122286341369   18.21670991777446   -2.91815949133031
H          -2.41886321826475   22.49358858949157   -5.16898428675867
H           2.51016422453823   22.62988611724253   -5.90195270728638
H           2.23959181205646   24.52353489794965   -7.37883223760473
H           0.79779534266706   26.17053978988401   -8.50752515278213
H          -1.64012182408718   26.13344453495570   -8.15824104331965
H          -2.65621769313352   24.44621366003675   -6.67858628920219
