95
 SCF done       -189.356149910412          0.000418779922
C           3.26306092408578    3.58577514590387   -0.98397322981215
C           3.54236488249053    4.46423546871419    0.03209795115044
C           4.58881224057457    4.29755505171958    0.95720785678522
N           5.38491483765581    4.19243458168825    1.77891286486249
C           2.83068202872961    5.66028753450431    0.24683827253197
N           2.30336976763250    6.66165815171704    0.44181444240975
C           4.14115415926391    2.51566182087455   -1.44301984506996
C           3.73117645730942    2.12447375604424   -2.75158056480456
C           4.39722188586023    1.16194069329690   -3.45330403782375
C           5.51557702341389    0.52843931781973   -2.86428589244304
C           5.92170119797365    0.90575622491882   -1.55177309077583
C           5.21750913956855    1.91284740745108   -0.85154239021426
C           7.03457169743604    0.26188081535963   -0.97425155567843
C           7.71696691367608   -0.70677540031171   -1.65879024462001
C           7.31719260928414   -1.07693314178677   -2.95128591857904
C           6.24033195380887   -0.47211686398128   -3.54105498487740
C           2.53642025856466    2.89840640808145   -3.13923334500365
O           1.93889623506218    2.87344997081475   -4.19022403692505
C           2.17354905036446    3.68273476228582   -1.92336816314593
C           0.91937607153220    4.21471385917511   -1.82132062769345
C           0.22836238983462    4.61913859821010   -0.66542237741285
C           0.45449514574412    4.29962596082389    0.67193871382115
C          -0.46611931155339    4.91357354105225    1.56244039347986
S          -0.07451084164750    4.46943759518982    3.18235517845743
C           1.25640712319203    3.48942461466410    2.53535027057315
N           1.38108038278957    3.50156461302505    1.25836006411549
C           2.16123738808688    2.76068150447231    3.44634283435058
C          -1.43594192523016    5.68653849846847    0.93317411451825
S          -1.19153161461158    5.63228401964428   -0.79716970285563
C          -2.50016235758461    6.43847712581364    1.48418322417903
C          -3.41484861240221    7.11715307163526    0.64087528433001
C          -4.51248037130351    7.88959223456134    1.15650518580227
N          -5.35322354735387    8.47864816571488    0.30293698885389
C          -5.15787624858709    8.39820622663485   -0.98862475511206
C          -4.04657340122217    7.65224428888112   -1.50098146059616
N          -3.23549198641707    7.02972940955551   -0.67953824576767
C          -3.82991030781695    7.55861849131794   -2.89792380552099
N          -3.68781262228033    7.50620893502444   -4.03309843283568
C          -6.06616927752886    9.03497793744535   -1.87254828349503
N          -6.76992425552586    9.52809103626934   -2.62921497649561
C          -4.75728354200460    8.04215874417710    2.54438600201971
C          -3.81958800604547    7.40493410471004    3.39099237364031
C          -2.72518661662708    6.60851500778054    2.87017810552284
N          -1.97358136090609    6.11760522565369    3.85181914400131
S          -2.55357884203657    6.61372665194823    5.26810217355856
N          -3.78518051099201    7.46715711129585    4.71828285786722
C          -5.86088353924129    8.80916827036360    2.99095145083950
C          -6.41931444181250    8.89622775159817    4.27153152938423
C          -7.51396206545240    9.79167629926334    4.31372252631762
S          -8.18863943743757    9.84528719628500    5.89793825710592
C          -6.95404150592257    8.64127750621863    6.37769651638644
N          -6.16058151634924    8.27491941495343    5.44900476998127
C          -6.91621322337475    8.14947853268221    7.76895991902762
C          -7.83076847736328   10.40462231082602    3.10194508849655
S          -6.73104599315026    9.82000092863482    1.86559274166825
C          -8.89485387403743   11.30497934754555    2.95886586342587
C          -9.36840488976495   11.91592865912981    1.82580557100216
C         -10.50056539949039   12.81833351199727    1.74402126054430
C         -11.23662385092230   13.32213815269244    2.78677643378192
C         -12.32167188514556   14.20972542753674    2.62989520457518
N         -13.21316297562794   14.93148799285590    2.57890205895223
C         -11.02341500311396   13.05106258510455    4.15402018042977
N         -10.91488660081218   12.88594331740541    5.28584522369853
C         -10.71696443231930   13.12495766774669    0.33270050059147
C          -9.72199399524832   12.45394091597947   -0.43545442199378
C          -8.83710288286429   11.71139460552299    0.46881071904481
O          -7.85372207635703   11.06510187764313    0.15266924710835
C          -9.66777054770027   12.54117605749420   -1.79643119338819
C         -10.62885282814681   13.32974650784642   -2.46831824424561
C         -11.62644677016246   14.00915605186631   -1.71052599903364
C         -11.65733360943515   13.89287451601231   -0.30073284117642
C         -12.57706321184501   14.79547928802675   -2.39192761740780
C         -12.54492209702142   14.90758601082142   -3.75574305688491
C         -11.56313644006546   14.23747433839712   -4.50029824466470
C         -10.62541031455432   13.46436088697030   -3.87026599999903
H           4.07643057069867    0.88492832640297   -4.44657939316178
H           5.54118441117679    2.17683337918575    0.14328459605839
H           7.34036763491789    0.55231309512942    0.02027699642075
H           8.56933473270500   -1.19275300906270   -1.20794788107882
H           7.86645950287027   -1.84345187153258   -3.47724157662026
H           5.92813811529700   -0.75322045141704   -4.53623892398346
H           0.36372678559004    4.27534708797219   -2.75226325060601
H           1.68927177544862    2.60489074413099    4.41244289185120
H           3.07463386964919    3.34051623064575    3.59108693919557
H           2.44244177310007    1.80661680001429    3.00562965995235
H          -6.77230579312009    8.98048392895427    8.45806741538531
H          -6.09945187660867    7.44145093060052    7.87672699441610
H          -7.85734076398506    7.66405011784346    8.02428364491744
H          -9.40749220416547   11.51378780642384    3.89135813666566
H          -8.90406691293956   12.01338918835991   -2.34843093955999
H         -12.42947520639229   14.41630244346568    0.24036160317188
H         -13.33169675759875   15.30962933746583   -1.81481540978375
H         -13.27706677436012   15.51390670454529   -4.26779655427757
H         -11.55320235098331   14.33679800412446   -5.57540285884167
H          -9.86660285128810   12.94489699919279   -4.43652386260860
