135
 SCF done       -263.881090062987          0.000404465836
C           2.78467575937365    0.65684672964915    0.85177263152720
C           3.88081235544838    0.51021837479972    1.66184152169245
C           4.66801085203141   -0.65965796917851    1.72035435343073
N           5.35139945460598   -1.57682054426074    1.81909042421286
C           4.40059867153852    1.48250756365657    2.54182913563380
N           4.89157277269589    2.21211631015635    3.28122252600492
C           2.27551557770790   -0.35790345891581   -0.06468367731272
C           1.16349353167911    0.18326567948841   -0.77100083844094
C           0.47544343807733   -0.53800591987439   -1.70350862463686
C           0.87242664151102   -1.86616919265773   -1.97533298763440
C           1.98013574558108   -2.41903918311706   -1.26996567406007
C           2.67562756040302   -1.64462522968871   -0.31294667424399
C           2.36432007416825   -3.74744031361674   -1.54413210016495
C           1.68861824774978   -4.49472612444574   -2.47021903533148
C           0.59910460729988   -3.94862755096907   -3.16509097269230
C           0.19978958449409   -2.66209374153571   -2.92309109160757
C           0.92356829471003    1.56084187582696   -0.31732252103941
O           0.06011463361361    2.31423818910714   -0.72356447969194
C           1.93371014933022    1.82988526138777    0.72534372358252
C           2.02938874931982    2.96531859634613    1.47685748034617
C           1.25257120808176    4.14500925718008    1.46227692263643
C           1.47604546313775    5.16346737797864    2.36901583436722
C           0.60280503403128    6.25542194002261    2.23966526067662
C           0.57758358141622    7.45150771562339    2.99532418711917
C           1.45581212359946    7.68934854708887    4.11885045785229
C           2.01480733889959    8.87505141619794    4.50925594499199
C           2.77930601384245    8.75806714904459    5.68828348931707
C           2.80576700783010    7.50218126365468    6.22479765819766
S           1.87490240755940    6.42355277978120    5.24547251751923
C           3.49777991828499    7.02630562464087    7.44813508831516
Cl          3.60392150419595   10.09766086002284    6.38275968365048
C          -0.36528797009351    8.40158861941936    2.61330003184279
C          -1.26192617702511    8.21211662276742    1.52867162458775
C          -1.22730545437062    7.02504922148587    0.76646395946762
C          -0.30019093304806    6.06237644800834    1.15829972282554
S          -0.06726429922739    4.52375996352770    0.37928184975430
C          -2.08503848698565    6.80792898169172   -0.37957888054391
C          -2.65623888467170    5.63959776543975   -0.79934881467611
C          -3.37661724309241    5.78543003952830   -2.00364472359065
C          -3.35824129481126    7.04572824756281   -2.52743343503359
S          -2.43654652345501    8.09423949611922   -1.50599487312133
C          -3.99180394386512    7.54720315261601   -3.77285893910084
Cl         -4.20567299316882    4.47060413422781   -2.74097450874959
C          -2.16138872463062    9.29419145661399    1.41248672392975
C          -1.96902841097566   10.26540248289530    2.35845448061965
S          -0.64708953602318    9.91485609440367    3.43438821344639
C          -2.75844887947122   11.45233558014674    2.45448492454275
C          -2.90914746496795   12.42595243915694    3.43529395922767
C          -2.19360905766723   12.43529157996780    4.72201212399068
O          -1.06107584504288   12.04405501874679    4.83186703044438
O          -2.87681577821531   12.85119546421561    5.79656889187015
C          -3.89318888784135   13.30547371830196    2.87653652492688
N          -4.27479600148546   12.85660385995137    1.69982608904372
O          -3.59956715545940   11.72268178223218    1.44380019526878
C          -4.44022665885706   14.55267293780745    3.34853155157811
C          -5.47544302632077   15.21163655682147    2.75612050237061
C          -5.79732516753650   16.44179620561731    3.38009665538452
C          -6.83736829334988   17.33428961367469    3.04998959015040
C          -7.70490100961944   17.13701813151329    1.90698184155123
C          -9.04342128856017   17.39544031096559    1.81748488361118
C          -9.56062322702910   17.14897365865161    0.52803022433257
C          -8.63559157132264   16.71971708458773   -0.37955166090838
S          -7.08143012867392   16.60073823716472    0.36999714236643
C          -8.82349017935938   16.38768257118252   -1.81398144921828
Cl        -11.22400822649438   17.37570687576720    0.14693950026687
C          -6.97709426811329   18.44984968701442    3.87057398418994
C          -6.12935552133980   18.71246994434398    4.97813634421493
C          -5.10551898210939   17.80340461841937    5.32845822627990
C          -4.95923218601968   16.70032268486714    4.49355649810207
S          -3.78464565578052   15.43360690796030    4.70955414581196
C          -4.30020769901835   18.00420647458778    6.51102845166003
C          -4.68766249310737   18.52623618622876    7.71594208305362
C          -3.63751302603033   18.55086237293022    8.65604575959767
C          -2.44904716258199   18.05766057965584    8.19612298083079
S          -2.61846022309182   17.53753761023221    6.55635563983433
C          -1.15227824204856   17.93845596246685    8.90706888488122
Cl         -3.85264253958624   19.15596490251734   10.25186213354221
C          -6.42460833598357   19.94771232602882    5.59066968227115
C          -7.49152133445032   20.60257025666504    5.03301408334516
S          -8.13971916677083   19.72339113396524    3.65464435779492
C          -8.08235506068240   21.84597237205156    5.36969297519637
C          -8.04798905349187   22.49420042045756    6.56907062887449
C          -8.61325253851697   23.81294166817974    6.81101203539256
C          -8.93799025875534   24.74296834999097    5.85911091926435
C          -9.46387302418936   26.01896913154735    6.15224327099988
N          -9.90007198170684   27.06651378815439    6.32542650246149
C          -8.75947525379385   24.58269914118939    4.46834084767852
N          -8.62217134278148   24.53947661331171    3.32913563506701
C          -8.68637643498511   24.01250511905699    8.25199485677220
C          -8.10940461458690   22.87993570256573    8.89306381637108
C          -7.65844701678364   21.91149588115420    7.88174147005101
O          -7.13658129878012   20.83896636790063    8.10452634080989
C          -8.01970415222609   22.78547279133482   10.25227137061331
C          -8.51365766092993   23.84199318756010   11.04899070125631
C          -9.10226396744886   24.97508060101750   10.41606368946981
C          -9.18168441651280   25.04342974939904    9.00613462354059
C          -9.59649949387427   26.02130214972148   11.22133153746956
C          -9.51123101187090   25.95494146597857   12.58547412121096
C          -8.92958010629252   24.83991910182554   13.20724061614475
C          -8.44128714081383   23.80589089782221   12.45536855106150
H          -0.36337891791612   -0.10084227149332   -2.22457465395971
H           3.50830054808633   -2.09514460165747    0.20306603326781
H           3.20403466921923   -4.16354925248071   -1.00698178842858
H           1.99017421792809   -5.51156645493068   -2.67239356153324
H           0.07764714960181   -4.55241660779648   -3.89269411805185
H          -0.63857146384293   -2.23599441086559   -3.45460042998019
H           2.80633779718591    2.99059461424646    2.23162095185871
H           2.26429848906612    5.10620146325331    3.09726467146344
H           1.92163307880699    9.79674440253702    3.96650018746910
H           4.16535166774589    6.19812769645063    7.21360239931546
H           2.77628181051895    6.67616207367092    8.18616412541506
H           4.07650157072748    7.83939425877800    7.87900873402939
H          -2.59893154526448    4.70992497958607   -0.26537932672007
H          -4.64039891902727    6.77961423205065   -4.18775502530620
H          -3.23324496955285    7.80289757403715   -4.51298386254417
H          -4.57845472150611    8.44220902786773   -3.57168595301968
H          -2.94706012928415    9.35900298162464    0.68322572613749
H          -3.78017380182703   13.13415602890175    5.59926367980264
H          -5.98604146864446   14.80205985500971    1.90577672648299
H          -9.65478888644973   17.71372335739547    2.64110884773421
H          -9.88520942834746   16.33742376963829   -2.04261833380637
H          -8.35895416642971   15.43209901633387   -2.05090401368807
H          -8.36623420910660   17.14933894471036   -2.44618914609802
H          -5.68467172086661   18.85075541432530    7.95062093090679
H          -1.28027124593752   18.21126334032171    9.95168460960281
H          -0.40696136479697   18.59655591436218    8.46018797114724
H          -0.77625921183349   16.91820359693603    8.84658925334245
H          -5.83448921874552   20.36885511307921    6.37951215465382
H          -8.66163594057400   22.29443848829875    4.57104194192449
H          -7.57311142628536   21.91683790461500   10.71317618346558
H          -9.63835845384006   25.91144709571002    8.55789077542576
H         -10.04174109329527   26.87859275452749   10.73815559112431
H          -9.89126568104532   26.76224108977437   13.19334896988481
H          -8.87059902488168   24.80429845605078   14.28476403126022
H          -7.99239092566953   22.94465637778451   12.92824681416362
