143
 SCF done       -279.337853055293          0.000830701738
C          -3.56902640560422   11.04750412165885  -10.69051024836108
C          -3.38249168968795    9.85168624205357  -10.04373469177435
C          -2.27123655371110    9.01192709432433  -10.24342051214381
N          -1.35398945235569    8.32394561997057  -10.31784423532059
C          -4.29890420826954    9.31467877793565   -9.11661089480400
N          -5.03448673774463    8.82355847954551   -8.38523067612229
C          -2.82911600898246   11.47871828443087  -11.87234452608365
C          -3.59177661207784   12.47830483218061  -12.54445821974989
C          -3.17252882630646   13.03198567304811  -13.71934235541329
C          -1.94386124761463   12.61390739775129  -14.27882518981810
C          -1.16708375870411   11.62970672200853  -13.60180112661208
C          -1.63090127699961   11.06698245902773  -12.39051534570883
C           0.06033175893965   11.22724381331502  -14.16623772547874
C           0.49940986170906   11.76645834893750  -15.34466075414975
C          -0.26701275338412   12.73377189233986  -16.01158665465498
C          -1.46254485729070   13.14829749631936  -15.49007510086196
C          -4.80465332015195   12.77280775148409  -11.76152879783279
O          -5.70793917235801   13.52706769942986  -12.03746347555698
C          -4.65792265220389   11.98384718005402  -10.50086193231961
C          -5.39464936050500   12.36500442663989   -9.42135118803800
C          -5.20559784432646   12.06698164411130   -8.05027399929027
C          -4.12409407618598   11.48946227828242   -7.43435946867525
C          -4.26221331219332   11.33138790886060   -6.04507456983813
C          -3.36949306607074   10.68172808586174   -5.15776506374636
C          -2.20529413949720    9.95285038042328   -5.61605415082108
C          -1.75704050943390    8.75335376214854   -5.13403705682649
C          -0.64171656759969    8.25509661711140   -5.83807953997903
C          -0.20622302118406    9.05706119151058   -6.85317159556636
S          -1.19594311575746   10.47194457391334   -6.94213151296910
C           0.87905621896910    8.81982053464098   -7.83353057266669
Cl          0.09463044441656    6.75143135673164   -5.44649861942903
C          -3.73608699346885   10.69002447580390   -3.81850980553957
C          -4.93628796740651   11.28147629148952   -3.33601152234574
C          -5.85481535684497   11.87546339845388   -4.23229512429684
C          -5.49363386265924   11.86059047682563   -5.57642388146918
S          -6.43761144707134   12.50888027806911   -6.88502725230853
C          -7.08819441069551   12.48003391969510   -3.78366759610227
C          -8.30443599275182   12.47371917123228   -4.41266275331334
C          -9.28597770880838   13.19060074007913   -3.70067270213508
C          -8.84029698789003   13.76666731562586   -2.54326924933791
S          -7.17056149117862   13.41010629287577   -2.30943231907189
C          -9.59000796225741   14.56153330457126   -1.54244803732139
Cl        -10.90976167072572   13.32405559641150   -4.25589663580016
C          -5.07289658995211   11.13738279684798   -1.94262873943606
C          -4.01062022527812   10.50110380633645   -1.34913597749522
S          -2.79204817258271   10.02290543552077   -2.51227896359518
C          -3.89012225461321   10.21665337905746    0.02702052532884
C          -4.82440541293326   10.51532296520572    1.02915454559167
C          -4.40436984499686   10.05481085976525    2.32486827315383
N          -5.15451584943205   10.23645039422218    3.41146817312137
C          -6.30038245244153   10.85872676484970    3.24854335128769
C          -7.13288876766161   11.06691487816278    4.45854814825633
O          -6.78435118176961   10.71020883097196    5.56398364316252
C          -8.41718212489555   11.74710811476248    4.21718986104629
C          -8.81228673628760   12.17868527459578    3.01453375152733
C          -8.01632608501832   12.02212761170009    1.78689042816887
O          -8.40338387151197   12.43649155869880    0.71073250554096
C          -6.72285229451365   11.32201273631315    1.95993105795616
N          -5.99066089094695   11.14790203089210    0.87955417641512
C          -3.15920889000779    9.42252591857258    2.31634024174949
S          -2.51701867793180    9.40084320609227    0.70733968732333
C          -2.52448939626280    8.87501584337727    3.45026153868526
C          -1.27501326361199    8.31244787175773    3.53939694269257
C          -0.96007379053092    7.86330335034353    4.83707590014702
C           0.22035809074598    7.21357965075175    5.26342025525043
C           1.35162206972481    7.06595899590339    4.37318966974006
C           1.84451258913105    7.98453142654191    3.48925240268500
C           2.96596834684867    7.50823711031725    2.77814363427981
C           3.33787707319680    6.23417029582864    3.09816117742271
S           2.28927602599042    5.59827903352152    4.31934570585347
C           4.45838688510892    5.42749359019013    2.55377972119799
Cl          3.78382557779579    8.46849586590177    1.60467345872926
C           0.23093717380432    6.74962432729113    6.57258839412742
C          -0.85588960522546    6.92739181288950    7.47368210658682
C          -2.02789523248531    7.60068381311383    7.05194956448428
C          -2.03661100380713    8.06684687205204    5.74159737926220
S          -3.37773481741821    8.87902606805714    4.97451999199295
C          -3.18385992927888    7.76339913202918    7.90525948706071
C          -4.06188522453356    8.81340291742703    7.94502682264353
C          -5.11847903260897    8.60428487724474    8.85315471473109
C          -5.07696438559269    7.39993768050136    9.49943625008239
S          -3.69527012437635    6.49916997241543    8.99246942904771
C          -6.02266812489249    6.85371529104164   10.50473815734906
Cl         -6.35174120501302    9.77183062619677    9.11219939384926
C          -0.57036446109780    6.41350833293890    8.75295991703520
C           0.66923429901524    5.83084932422250    8.85568951507407
S           1.55840459476397    5.93602306381101    7.33882225153498
C           1.33923688531264    5.19734868743012    9.92821897167021
C           0.89862304015530    4.79937638421990   11.15756716051051
C           1.74907422704202    4.11289540474500   12.12191629091788
C           3.11861621095936    4.08742329036546   12.13781147507641
C           3.88035151690360    3.41528451770703   13.11735823065641
N           4.55758003129479    2.88867795219931   13.88038103412946
C           3.96991379955486    4.75517990104678   11.23117502178544
N           4.73827170290161    5.27812108229153   10.55620908046310
C           0.88662605361820    3.51207984056172   13.13111668471664
C          -0.44992994526383    3.93241173763156   12.88464767532888
C          -0.48547857993821    4.80597382782552   11.69896815488186
O          -1.46318046886633    5.39243491342208   11.28418605866897
C          -1.49020519950105    3.53412267537802   13.67361058058153
C          -1.23666340082194    2.67056412463853   14.76234191886271
C           0.09786393425174    2.23786640347798   15.01133545194490
C           1.15549758734773    2.67326813381591   14.18030355718771
C           0.33888128644985    1.37136925970299   16.09698882584238
C          -0.68709408265242    0.95172794913652   16.89916529329459
C          -2.00068020580894    1.37852769469616   16.65306423221375
C          -2.26941007216076    2.22000367529967   15.60789708198691
H          -3.77080929488471   13.78032895607263  -14.21740002879977
H          -1.01914971928936   10.32904856930823  -11.89551917720270
H           0.64540433665495   10.47966918663809  -13.65085599715680
H           1.43988246826795   11.44980351396237  -15.77008005284521
H           0.09457984418133   13.14894365018384  -16.94034501840418
H          -2.05677599303617   13.89293985880072  -15.99910822283922
H          -6.19974077116624   13.05805905722771   -9.64661187586843
H          -3.22784502667003   11.23832465580195   -7.96542868300932
H          -2.23014105732356    8.20725125544100   -4.33972393123163
H           1.44349695244778    9.73197270675004   -8.01719507565752
H           0.44961738062546    8.48809563093599   -8.78221155078169
H           1.54775160407329    8.04597838536935   -7.46488516312015
H          -8.51519937420732   11.94037318993272   -5.32079211058884
H          -9.19734747106015   15.57631968788365   -1.48058172518111
H          -9.48353161450114   14.09719461756276   -0.56259229492083
H         -10.64181238286758   14.60358927134308   -1.81332302102846
H          -5.91550245488180   11.46443832927434   -1.36287932444800
H          -9.03470294796644   11.88500299405289    5.09453007952466
H          -9.76310418121423   12.67809374837719    2.88325527739626
H          -0.62857688797822    8.20477896114556    2.68743975265348
H           1.45912439581942    8.98116780924820    3.37894920282982
H           4.09728320111237    4.46927815282931    2.18297063405898
H           5.19791004775467    5.22919077944917    3.32939212364901
H           4.93783753785849    5.96624276601096    1.74030255333810
H          -3.95518716494671    9.72144804804043    7.38182939422966
H          -6.68797226865310    7.64265219674224   10.84680960678721
H          -5.47848020358861    6.44516835649422   11.35435251403680
H          -6.62308467074573    6.05263944049121   10.07242370385496
H          -1.23939986916379    6.47211549429459    9.59010306127090
H           2.36904239071179    4.95435600994398    9.69056734971739
H          -2.49519548992235    3.87053653932592   13.46598866519525
H           2.15306029669727    2.32262175296454   14.39163783678183
H           1.35210625438574    1.04669071026979   16.28313536972803
H          -0.49217827003830    0.28812527119530   17.72824665156862
H          -2.79839753994274    1.03670020166481   17.29550667980042
H          -3.27891507058622    2.55175517345558   15.41334822547391
