91
 SCF done       -184.120175237808          0.000443372867
N           6.35791845880081   -3.95881397011574    3.20674887085010
C           6.90779351932727   -3.29676264372418    2.44729060687210
C           7.56824499348489   -2.52648882593428    1.46942067941472
C           7.97815645989154   -3.28552930684294    0.35493481205265
N           8.32912629949161   -3.94153227308428   -0.51924033271098
C           7.83976631084552   -1.19300961691233    1.60628636113063
C           8.56578805006332   -0.37018805944501    0.65875846129890
C           8.68342417103013   -0.41055461627485   -0.68716691851277
C           7.93629148037607   -1.17076717226742   -1.64874918053939
C           6.59342902156865   -1.55513412672577   -1.47205439746756
N           5.84001898881978   -1.30728532918892   -0.36417313562815
C           4.65288244954132   -1.76895922045701   -0.49668425753530
S           4.27681868160070   -2.57100214629919   -1.99697182183288
C           5.89281654051642   -2.22658298990492   -2.50197388919207
C           6.44648866963929   -2.50709016571222   -3.74977060292090
C           5.60571891083912   -3.07918038155447   -4.77842907263985
N           4.51120093810693   -3.68774687059596   -4.35959537674003
N           3.65674646766485   -4.24527415365219   -5.15750061585122
C           3.77876916573088   -4.25304727954132   -6.47295292108332
C           2.71385949307418   -4.91971081671216   -7.19181176412650
C           2.78802693428979   -5.34702556033642   -8.52503328123092
N           3.90115801265949   -5.28923717457609   -9.30298760347810
C           3.68935280111736   -5.70552028854192  -10.48329437077946
S           2.06549571286424   -6.26011690514416  -10.82546065379197
C           1.65288871066751   -5.90758212186092   -9.17521840981943
C           0.41514926776824   -6.06873141496853   -8.54695377667869
C          -0.80098208077705   -6.52724928039246   -9.15624660908642
C          -1.02575937717315   -7.40626598087222  -10.16026832546612
C          -2.35938274083638   -7.38637192586378  -10.84269994248241
O          -3.35483172892385   -6.82104097038674  -10.45802196411831
C          -2.16335238173380   -8.14078629501844  -12.09206566868820
C          -3.02588296566966   -8.30860825959372  -13.13675835876936
C          -2.60749535533009   -9.05249909510708  -14.26286260262974
C          -3.45405838531772   -9.25587253166870  -15.37045961697022
C          -3.02617284825920   -9.97070228511851  -16.45610612358303
C          -1.73322920582456  -10.51459959427885  -16.48086063270216
C          -0.88673443548287  -10.33696467738286  -15.42057700934577
C          -1.29480228104186   -9.60694452795482  -14.28569601170253
C          -0.42622596639686   -9.42567183692833  -13.18482753726466
C          -0.85546775595671   -8.70820854832854  -12.10073255336252
C          -0.19810549045457   -8.38102378567360  -10.84134865296098
C           0.88605249582703   -9.03035675115464  -10.31292467745785
C           1.35193245459987   -8.82772915140630   -8.99785735416128
N           1.75301049988194   -8.70581282422777   -7.92956647932326
C           1.61845926356746  -10.02104814993567  -10.99857242550898
N           2.25994442416155  -10.81536565913752  -11.52263525100182
C           0.36300068273313   -5.66056643229152   -7.19952298088651
N          -0.74435580049969   -5.74823536151728   -6.41339184342186
C          -0.50206099942861   -5.33802823680075   -5.22659180313851
S           1.12339043491915   -4.78836045485081   -4.89433849523775
C           1.50056217996406   -5.14212393842268   -6.54082568646976
C           4.85206661045998   -3.53065311270816   -7.06248795969012
N           5.07484976108726   -3.20258237315580   -8.33068974463000
S           6.36443295612915   -2.25097680416897   -8.39849032178211
N           6.69782251301991   -2.18391754000726   -6.83092630176482
C           5.81149803486184   -2.92570597196617   -6.17551184025521
C           7.80052738881730   -2.18260198005307   -3.91473785337759
N           8.56432789520043   -2.47544055554562   -5.00033923713904
C           9.76257806140572   -2.06964150928697   -4.86496095358299
S          10.14544284438897   -1.25753902422776   -3.36547689463537
C           8.50201733959229   -1.51288000112318   -2.87883842617274
C           9.14736916177058    0.78751162574033    1.40670596624665
O           9.95428707830283    1.58356971952904    0.98777219529744
C           8.47361702328911    0.76975443359122    2.71615469781340
C           8.53368280744837    1.68922735318253    3.72375260290937
C           7.76928820703230    1.48049210779193    4.89356326602189
C           7.79023292042173    2.39714567670028    5.96337372947297
C           7.03667912924298    2.18098990637111    7.08495145809045
C           6.23041521461957    1.03733114009786    7.18656897559819
C           6.18800837117093    0.12702128498238    6.16592322670675
C           6.95104690435625    0.31795581133400    4.99588599081167
C           6.91424422008272   -0.62157462403056    3.93996886725418
C           7.66724629129001   -0.40257348124137    2.81781692114267
H           9.41246468544677    0.27707678212613   -1.10909695282476
H           3.91693465286563   -1.68795233631198    0.28030961593828
H           4.43788084749638   -5.74635797813209  -11.24957518159835
H          -1.69420378321497   -6.05681426496788   -8.75426728841648
H          -4.01525154714876   -7.87689767069617  -13.10623286148295
H          -4.44828315341801   -8.83429094519087  -15.34554977590889
H          -3.68091167550404  -10.12033841862588  -17.30152819723062
H          -1.41133126573246  -11.07621041147523  -17.34500451013054
H           0.10828413471652  -10.75696319317393  -15.43388658078951
H           0.56519405391051   -9.84856050780686  -13.23106537727558
H          -1.24671650889658   -5.33515445525379   -4.45409059835197
H          10.52368262269010   -2.20912748797818   -5.60729914656274
H           9.15522632351663    2.56737295992976    3.62957447575384
H           8.41310362251720    3.27571453327937    5.87933559021786
H           7.05740092319859    2.88953826816166    7.89943992521055
H           5.64278470526676    0.88124262440557    8.07884197642307
H           5.57095023657420   -0.75626605249784    6.24116704195490
H           6.27997724264240   -1.48884353778732    4.03733067219193
