141
 SCF done       -281.270124551711          0.000413638030
C           4.47199370291227    4.62794668858002   -2.79469694807561
C           3.24160140236430    4.56060935988834   -3.39169209249248
C           3.05046862905533    4.53102889541953   -4.78671381230433
N           2.85043221639537    4.53428495390740   -5.91718400265859
C           2.04368389914439    4.42025238861300   -2.65812908667387
N           1.06495561394590    4.23466282843284   -2.08814728004319
C           5.75513358769458    4.42989650478899   -3.45678577713462
C           6.71001589891874    4.02915150265825   -2.47551176630398
C           7.99726586908598    3.72471947898261   -2.81291530130835
C           8.39698601890165    3.82105276861121   -4.16501050818840
C           7.45111661201750    4.23643742179371   -5.14674277768353
C           6.12154276616205    4.53651330202324   -4.77086843818744
C           7.86659233110846    4.33529543059850   -6.49015122711116
C           9.15258628410006    4.03671136830650   -6.84954369837507
C          10.08270761634982    3.62663206354449   -5.88270794642445
C           9.71264353626392    3.52038059692071   -4.56954836121244
C           6.07638320896313    4.03161538604464   -1.14384924290206
O           6.55569257520746    3.69809273930443   -0.08514418755002
C           4.72129034737500    4.61483333599735   -1.36677144297161
C           4.04070669258929    5.15494848474558   -0.32479018117347
C           2.99111584476438    6.11136215150896   -0.34539491568080
C           2.19674875825761    6.44372470091648    0.72195022201976
C           1.27580434819493    7.47834421473846    0.45458115444286
C           0.31131306324961    8.03511480732545    1.32493301106182
C           0.06288938246527    7.51345030001499    2.65159368405501
C          -0.27030531493265    8.21132046389635    3.77991387773532
C          -0.51586337456005    7.37297927422444    4.88547080133723
C          -0.38873373628960    6.03799837369484    4.62451829622644
S           0.05590683679165    5.79913753934329    2.97279197666355
C          -0.59403203837811    4.89585374630455    5.55121252232723
Cl         -0.94227122458009    7.98257511928157    6.43711435446546
C          -0.41742576286215    9.11259769833791    0.83149330058989
C          -0.27829769442630    9.60103862098298   -0.49321024376762
C           0.63383499101158    8.99697830008426   -1.39014683438354
C           1.42321321554854    7.98163128489621   -0.86458158777993
S           2.66508007291907    7.13159092051169   -1.73248625882861
C           0.68971576586893    9.39179051824753   -2.77861627659673
C          -0.35286189796620    9.75143691261071   -3.58906546043482
C           0.05491162568392   10.04703784197300   -4.90561091613854
C           1.39869302037348    9.92455670460056   -5.12094381381092
S           2.18933607235128    9.41761579398080   -3.66820739435265
C           2.15976599454092   10.14044486974779   -6.37628685937524
Cl         -1.05657417970161   10.52533041821538   -6.12757634415457
C          -1.12071372254401   10.70236967530775   -0.73896982200761
C          -1.91983990618039   11.04111230528969    0.32458317212476
S          -1.62821101834053   10.00893507590663    1.70751930946985
C          -2.89619548075501   12.07992667068802    0.41495111531992
C          -3.30218843768517   12.89938538919521   -0.66442401269511
C          -4.30813527203108   13.92158273451163   -0.51944997565328
N          -4.62457218414912   14.68314022257808   -1.59008901425680
C          -4.04568849644723   14.47549759734833   -2.72566193535506
C          -3.08034117569501   13.44876829442668   -2.87630210159322
N          -2.73557933343503   12.70786752203521   -1.87633873675261
F          -2.49359243548097   13.21456837953788   -4.04771010836463
F          -4.38910683684796   15.25978723389998   -3.74456323414690
C          -4.96847150385225   14.16398891409069    0.70799813689030
C          -4.54875001832434   13.35684622805150    1.78450253600693
C          -3.54451321337073   12.33669590686577    1.63988002836513
N          -3.32406506490541   11.69753794776995    2.79037312479194
S          -4.27104064224430   12.31192805965855    3.92902976759896
N          -5.01279178569547   13.41624477535798    3.03420812330871
C          -5.99180056041891   15.14181859235094    0.90071299752108
C          -6.61438116799514   15.92706609339610   -0.03773224645369
C          -7.59001582840231   16.79080533679173    0.49583898721467
C          -8.38305532862100   17.72835747150393   -0.20457108139811
C          -8.16898873021156   17.97576697121775   -1.61288410981529
C          -6.97692191103297   18.04719809305979   -2.27961893251876
C          -7.13704789471724   18.30230962557386   -3.65729506870376
C          -8.43701311006716   18.42084046740912   -4.06085699108907
S          -9.50016436126423   18.23006113855103   -2.70947667755920
C          -8.96736823415708   18.67861024482256   -5.42251819295106
Cl         -5.79580018712620   18.44567569269072   -4.72556171918806
C          -9.34973515466089   18.39414587269169    0.54023602149238
C          -9.50248251696650   18.22315521352568    1.94402898893992
C          -8.65376843721174   17.34059514090555    2.65434318455225
C          -7.73827415768702   16.62071956120111    1.89744876717476
S          -6.62156993999811   15.42901349954467    2.50846585444023
C          -8.71228384896922   17.20344254579032    4.09331065091746
C          -8.53148372266342   16.07238151838271    4.83997656643909
C          -8.59190127751301   16.32175417544160    6.22612557561671
C          -8.79961135612603   17.63019953590837    6.55847857868754
S          -8.94085064827378   18.58791821432927    5.12779571238640
C          -8.91087267623892   18.24326276837655    7.90582118023305
Cl         -8.40954583131223   15.06801673023522    7.39186288668340
C         -10.56679133547108   18.98602970700884    2.45871053853496
C         -11.21196701561020   19.74745525634786    1.51476330660171
S         -10.48827220305642   19.54821486569542   -0.07889459846836
C         -12.30588607471813   20.63991497053991    1.59717543952199
C         -13.17093869224294   20.91885577328444    2.61633849116605
C         -14.25658128194333   21.88467937831819    2.49537607028696
C         -14.39631680385015   22.85174197417171    1.53496753686149
C         -15.46793773926191   23.76940682723044    1.49365136084866
N         -16.31092428105610   24.54275762187508    1.39749502600745
C         -13.49548406671297   23.11794699050962    0.48120474295931
N         -12.81523529005012   23.42358593819855   -0.39235032002509
C         -15.15119328312545   21.69903779781435    3.63080779451304
C         -14.57732670650297   20.72933124491537    4.49889219423491
C         -13.30301374473308   20.25100101075649    3.93718850479576
O         -12.54838390482879   19.46694633765333    4.47503108717193
C         -15.18536813447202   20.34662682884625    5.65967020926175
C         -16.42640049153539   20.92351728870072    6.00881543262569
C         -17.01232282941420   21.89047201016763    5.14175191871696
C         -16.35551261739339   22.26975469727745    3.94863074869620
C         -18.25335804317173   22.45691610944417    5.49741572043152
C         -18.88624363909344   22.08753000015410    6.65295402611397
C         -18.30849715996759   21.13491713562843    7.50557413655186
C         -17.10455959620132   20.56572820479730    7.19057856604185
H           8.70383445039007    3.41365256383853   -2.05779551603852
H           5.42459250874302    4.85603228113678   -5.53012998389907
H           7.14590734631482    4.64802873276705   -7.23142521732973
H           9.46046284296760    4.11419705065800   -7.88155861772893
H          11.09363195953336    3.39563847490250   -6.18356250155124
H          10.42443959661461    3.20499632074462   -3.82070664319472
H           4.40775867807529    4.88894367517321    0.66183394694167
H           2.27586149684396    5.94059834200807    1.66808924300380
H          -0.30673678118091    9.28259093962750    3.83958395641379
H          -0.18056479376031    5.13131058434089    6.53070055761269
H          -0.11731107966745    3.99929008846313    5.16387075274144
H          -1.65892114096724    4.69433912269822    5.67639712402262
H          -1.38154841739136    9.75895552566972   -3.28139340593061
H           1.56424664199451   10.72888669842781   -7.07015002169110
H           2.39566082450486    9.18478527099274   -6.84623268978164
H           3.09589886980531   10.65709201653020   -6.17436783176423
H          -1.12629749430401   11.25885905771274   -1.65484511457651
H          -6.38933319376874   15.85323416685542   -1.08303225531600
H          -6.01575985670079   17.96815793546166   -1.80706944811617
H          -8.14236525893161   18.78075695307004   -6.12289487520330
H          -9.56024254863458   19.59247400796415   -5.43541660833606
H          -9.60843396217227   17.85932887736480   -5.74666228523959
H          -8.39734642036596   15.09013415932065    4.42777587179694
H          -8.83595535798961   17.47193130850372    8.66828771879896
H          -9.86497690228095   18.75809856513186    8.01186235170939
H          -8.11724000620058   18.97356597008287    8.06227114059958
H         -10.87880197984364   18.97009468500475    3.48579758563729
H         -12.48799197133007   21.16010064150855    0.66349976078408
H         -14.72612111927197   19.60904292379421    6.30109924585530
H         -16.82927773228531   22.99946211128943    3.31174721135305
H         -18.69380528767250   23.19061759177967    4.83836274515418
H         -19.83634090956532   22.52744273521621    6.91658708570559
H         -18.82233345356093   20.85429208683703    8.41283466920119
H         -16.65468378084841   19.83145705480035    7.84284459230175
